*
*|DSPF 1.3
*|DESIGN phase_blender
*|DATE "Wed Dec 11 17:17:45 2019"
*|VENDOR "Synopsys"
*|PROGRAM "StarRC"
*|VERSION "M-2016.12"
*|DIVIDER /
*|DELIMITER :
**FORMAT SPF
*
** COMMENTS
** OPERATING_TEMPERATURE 25
** GLOBAL_TEMPERATURE 25
** TCAD_GRD_FILE /tsmc16/pdk/latest/rc/star_rcxt/rcworst/Tech/rcworst_CCworst_T/cln16ffc_1p9m_2xa1xd3xe2z_mim_ut-alrdl_rcworst_CCworst_T.nxtgrd
**   TCAD_TIME_STAMP Wed Apr 27 03:21:55 2016
**   TCADGRD_VERSION 80
** HALF_NODE_SCALE_FACTOR 0.98
.SUBCKT phase_blender ph_in[1] ph_in[0] thm_sel_bld[15] thm_sel_bld[10] thm_sel_bld[5] thm_sel_bld[14] thm_sel_bld[13] thm_sel_bld[12] thm_sel_bld[11] thm_sel_bld[9] thm_sel_bld[8] thm_sel_bld[6] thm_sel_bld[3] thm_sel_bld[2] thm_sel_bld[1] thm_sel_bld[0] thm_sel_bld[4] thm_sel_bld[7] ph_out
*|GROUND_NET 0
*|NET ln_X47/10 0.000226317PF
*|I (ld_X47/X17:GATE ld_X47/X17 GATE I 0 3.90694 5.32796)
*|I (ld_X47/X19:GATE ld_X47/X19 GATE I 0 3.90694 5.61592)
*|S (ln_X47/10:1 3.9149 5.25092)
*|S (ln_X47/10:2 3.9149 5.405)
*|S (ln_X47/10:3 3.9149 5.20796)
*|S (ln_X47/10:4 3.90694 5.47194)
*|S (ln_X47/10:5 3.9149 5.53898)
*|S (ln_X47/10:6 3.9149 5.69296)
*|S (ln_X47/10:7 3.9149 5.73592)
Cg607_1 ln_X47/10:1 0 3.4089e-17
Cg607_2 ln_X47/10:2 0 3.4089e-17
Cg607_3 ln_X47/10:3 0 3.34746e-17
Cg607_4 ln_X47/10:4 0 3.0034e-17
Cg607_5 ln_X47/10:5 0 3.58788e-17
Cg607_6 ln_X47/10:6 0 3.58788e-17
Cg607_7 ln_X47/10:7 0 1.39856e-17
R607_1 ld_X47/X17:GATE ln_X47/10:1 651.946
R607_2 ld_X47/X17:GATE ln_X47/10:2 651.946
R607_3 ln_X47/10:1 ln_X47/10:3 51.7814
R607_4 ln_X47/10:2 ln_X47/10:4 103.607
R607_5 ln_X47/10:4 ln_X47/10:5 259.076
R607_6 ln_X47/10:5 ld_X47/X19:GATE 2169.11
R607_7 ld_X47/X19:GATE ln_X47/10:6 2171.41
R607_8 ln_X47/10:6 ln_X47/10:7 129.208
*|NET ln_X47/9 0.000237367PF
*|I (ld_X47/X18:GATE ld_X47/X18 GATE I 0 3.11296 5.61592)
*|I (ld_X47/X16:GATE ld_X47/X16 GATE I 0 3.11296 5.32796)
*|S (ln_X47/9:1 3.1049 5.53898)
*|S (ln_X47/9:2 3.1049 5.69296)
*|S (ln_X47/9:3 3.1049 5.25092)
*|S (ln_X47/9:4 3.1049 5.405)
*|S (ln_X47/9:5 3.1049 5.73592)
*|S (ln_X47/9:6 3.09694 5.47194)
*|S (ln_X47/9:7 3.1049 5.20796)
Cg608_8 ln_X47/9:1 0 3.57499e-17
Cg608_9 ln_X47/9:2 0 3.57499e-17
Cg608_10 ln_X47/9:3 0 3.39245e-17
Cg608_11 ln_X47/9:4 0 3.39245e-17
Cg608_12 ln_X47/9:5 0 1.29658e-17
Cg608_13 ln_X47/9:6 0 2.28847e-17
Cg608_14 ln_X47/9:7 0 2.23451e-17
R608_9 ld_X47/X18:GATE ln_X47/9:1 2169.11
R608_10 ld_X47/X18:GATE ln_X47/9:2 2171.41
R608_11 ln_X47/9:1 ln_X47/9:6 259.076
R608_12 ln_X47/9:2 ln_X47/9:5 129.208
R608_13 ld_X47/X16:GATE ln_X47/9:3 651.946
R608_14 ld_X47/X16:GATE ln_X47/9:4 651.946
R608_15 ln_X47/9:3 ln_X47/9:7 51.7814
R608_16 ln_X47/9:4 ln_X47/9:6 103.607
*|NET ln_X46/9 0.000237381PF
*|I (ld_X46/X18:GATE ld_X46/X18 GATE I 0 3.11296 4.75194)
*|I (ld_X46/X16:GATE ld_X46/X16 GATE I 0 3.11296 5.04)
*|S (ln_X46/9:1 3.1049 4.82898)
*|S (ln_X46/9:2 3.1049 4.675)
*|S (ln_X46/9:3 3.1049 4.96296)
*|S (ln_X46/9:4 3.1049 5.11694)
*|S (ln_X46/9:5 3.1049 4.63194)
*|S (ln_X46/9:6 3.1049 4.89592)
*|S (ln_X46/9:7 3.1049 5.16)
Cg606_15 ln_X46/9:1 0 3.93732e-17
Cg606_16 ln_X46/9:2 0 3.57367e-17
Cg606_17 ln_X46/9:3 0 3.38959e-17
Cg606_18 ln_X46/9:4 0 3.38959e-17
Cg606_19 ln_X46/9:5 0 1.86024e-17
Cg606_20 ln_X46/9:6 0 8.36802e-18
Cg606_21 ln_X46/9:7 0 1.32503e-17
R606_17 ln_X46/9:1 ld_X46/X18:GATE 2171.41
R606_18 ln_X46/9:1 ln_X46/9:6 258.526
R606_19 ld_X46/X18:GATE ln_X46/9:2 2169.11
R606_20 ln_X46/9:2 ln_X46/9:5 129.758
R606_21 ld_X46/X16:GATE ln_X46/9:3 651.946
R606_22 ld_X46/X16:GATE ln_X46/9:4 651.253
R606_23 ln_X46/9:3 ln_X46/9:6 103.828
R606_24 ln_X46/9:4 ln_X46/9:7 52.002
*|NET ln_X46/10 0.000226167PF
*|I (ld_X46/X19:GATE ld_X46/X19 GATE I 0 3.90694 4.75194)
*|I (ld_X46/X17:GATE ld_X46/X17 GATE I 0 3.90694 5.04)
*|S (ln_X46/10:1 3.9149 4.82898)
*|S (ln_X46/10:2 3.9149 4.96296)
*|S (ln_X46/10:3 3.9149 5.11694)
*|S (ln_X46/10:4 3.9149 4.89592)
*|S (ln_X46/10:5 3.9149 5.16)
*|S (ln_X46/10:6 3.9149 4.675)
*|S (ln_X46/10:7 3.9149 4.63194)
Cg605_22 ln_X46/10:1 0 4.01766e-17
Cg605_23 ln_X46/10:2 0 3.40715e-17
Cg605_24 ln_X46/10:3 0 3.40715e-17
Cg605_25 ln_X46/10:4 0 2.33218e-17
Cg605_26 ln_X46/10:5 0 1.46234e-17
Cg605_27 ln_X46/10:6 0 3.58788e-17
Cg605_28 ln_X46/10:7 0 3.51424e-17
R605_25 ld_X46/X19:GATE ln_X46/10:1 2171.41
R605_26 ld_X46/X19:GATE ln_X46/10:6 2169.11
R605_27 ln_X46/10:1 ln_X46/10:4 258.526
R605_28 ld_X46/X17:GATE ln_X46/10:2 651.946
R605_29 ld_X46/X17:GATE ln_X46/10:3 651.253
R605_30 ln_X46/10:2 ln_X46/10:4 103.828
R605_31 ln_X46/10:3 ln_X46/10:5 52.002
R605_32 ln_X46/10:6 ln_X46/10:7 129.758
*|NET ln_X64/X0/12 0.000228379PF
*|I (ld_X64/X0/X14:GATE ld_X64/X0/X14 GATE I 0 1.13296 1.00796)
*|I (ld_X64/X0/X12:GATE ld_X64/X0/X12 GATE I 0 1.13296 0.72)
*|S (ln_X64/X0/12:1 1.1249 0.930918)
*|S (ln_X64/X0/12:2 1.1249 1.085)
*|S (ln_X64/X0/12:3 1.11694 0.86398)
*|S (ln_X64/X0/12:4 1.1249 1.12796)
*|S (ln_X64/X0/12:5 1.1249 0.642959)
*|S (ln_X64/X0/12:6 1.1249 0.796939)
*|S (ln_X64/X0/12:7 1.1249 0.6)
Cg649_267 ln_X64/X0/12:1 0 3.23086e-18
Cg649_268 ln_X64/X0/12:2 0 3.23086e-18
Cg649_269 ln_X64/X0/12:3 0 2.23861e-17
Cg649_270 ln_X64/X0/12:4 0 6.91255e-18
Cg649_271 ln_X64/X0/12:5 0 3.40283e-17
Cg649_272 ln_X64/X0/12:6 0 3.40283e-17
Cg649_273 ln_X64/X0/12:7 0 3.43223e-17
R649_495 ld_X64/X0/X14:GATE ln_X64/X0/12:1 2171.41
R649_496 ld_X64/X0/X14:GATE ln_X64/X0/12:2 2171.41
R649_497 ln_X64/X0/12:1 ln_X64/X0/12:3 258.526
R649_498 ln_X64/X0/12:2 ln_X64/X0/12:4 129.208
R649_499 ln_X64/X0/12:3 ln_X64/X0/12:6 103.828
R649_500 ln_X64/X0/12:5 ld_X64/X0/X12:GATE 651.946
R649_501 ln_X64/X0/12:5 ln_X64/X0/12:7 51.7814
R649_502 ld_X64/X0/X12:GATE ln_X64/X0/12:6 651.253
*|NET ln_X65/X0/12 0.000228729PF
*|I (ld_X65/X0/X14:GATE ld_X65/X0/X14 GATE I 0 1.13296 1.29592)
*|I (ld_X65/X0/X12:GATE ld_X65/X0/X12 GATE I 0 1.13296 1.58398)
*|S (ln_X65/X0/12:1 1.1249 1.21898)
*|S (ln_X65/X0/12:2 1.1249 1.37296)
*|S (ln_X65/X0/12:3 1.1249 1.50694)
*|S (ln_X65/X0/12:4 1.1249 1.66092)
*|S (ln_X65/X0/12:5 1.1249 1.44)
*|S (ln_X65/X0/12:6 1.1249 1.17592)
*|S (ln_X65/X0/12:7 1.1249 1.70398)
Cg653_274 ln_X65/X0/12:1 0 3.2296e-18
Cg653_275 ln_X65/X0/12:2 0 6.83228e-18
Cg653_276 ln_X65/X0/12:3 0 3.40457e-17
Cg653_277 ln_X65/X0/12:4 0 3.40457e-17
Cg653_278 ln_X65/X0/12:5 0 2.46919e-17
Cg653_279 ln_X65/X0/12:6 0 2.27919e-17
Cg653_280 ln_X65/X0/12:7 0 1.27271e-17
R653_503 ld_X65/X0/X14:GATE ln_X65/X0/12:1 2169.11
R653_504 ld_X65/X0/X14:GATE ln_X65/X0/12:2 2171.41
R653_505 ln_X65/X0/12:1 ln_X65/X0/12:6 129.758
R653_506 ln_X65/X0/12:2 ln_X65/X0/12:5 259.076
R653_507 ld_X65/X0/X12:GATE ln_X65/X0/12:3 651.946
R653_508 ld_X65/X0/X12:GATE ln_X65/X0/12:4 651.253
R653_509 ln_X65/X0/12:3 ln_X65/X0/12:5 103.607
R653_510 ln_X65/X0/12:4 ln_X65/X0/12:7 52.002
*|NET ln_X66/X0/12 0.000228349PF
*|I (ld_X66/X0/X14:GATE ld_X66/X0/X14 GATE I 0 1.13296 2.16)
*|I (ld_X66/X0/X12:GATE ld_X66/X0/X12 GATE I 0 1.13296 1.87194)
*|S (ln_X66/X0/12:1 1.1249 2.08296)
*|S (ln_X66/X0/12:2 1.1249 2.23694)
*|S (ln_X66/X0/12:3 1.1249 1.795)
*|S (ln_X66/X0/12:4 1.1249 1.94898)
*|S (ln_X66/X0/12:5 1.1249 1.75194)
*|S (ln_X66/X0/12:6 1.11694 2.01592)
*|S (ln_X66/X0/12:7 1.1249 2.28)
Cg657_281 ln_X66/X0/12:1 0 3.2296e-18
Cg657_282 ln_X66/X0/12:2 0 3.2296e-18
Cg657_283 ln_X66/X0/12:3 0 3.40457e-17
Cg657_284 ln_X66/X0/12:4 0 3.40457e-17
Cg657_285 ln_X66/X0/12:5 0 3.41766e-17
Cg657_286 ln_X66/X0/12:6 0 2.24232e-17
Cg657_287 ln_X66/X0/12:7 0 6.9789e-18
R657_511 ld_X66/X0/X14:GATE ln_X66/X0/12:1 2171.41
R657_512 ld_X66/X0/X14:GATE ln_X66/X0/12:2 2169.11
R657_513 ln_X66/X0/12:1 ln_X66/X0/12:6 259.076
R657_514 ln_X66/X0/12:2 ln_X66/X0/12:7 129.758
R657_515 ld_X66/X0/X12:GATE ln_X66/X0/12:3 651.253
R657_516 ld_X66/X0/X12:GATE ln_X66/X0/12:4 651.946
R657_517 ln_X66/X0/12:3 ln_X66/X0/12:5 52.002
R657_518 ln_X66/X0/12:4 ln_X66/X0/12:6 103.607
*|NET ln_X67/X0/12 0.00022864PF
*|I (ld_X67/X0/X14:GATE ld_X67/X0/X14 GATE I 0 1.13296 2.44796)
*|I (ld_X67/X0/X12:GATE ld_X67/X0/X12 GATE I 0 1.13296 2.73592)
*|S (ln_X67/X0/12:1 1.1249 2.37092)
*|S (ln_X67/X0/12:2 1.1249 2.525)
*|S (ln_X67/X0/12:3 1.1249 2.65898)
*|S (ln_X67/X0/12:4 1.1249 2.81296)
*|S (ln_X67/X0/12:5 1.1249 2.59194)
*|S (ln_X67/X0/12:6 1.1249 2.32796)
*|S (ln_X67/X0/12:7 1.1249 2.85592)
Cg661_288 ln_X67/X0/12:1 0 3.23086e-18
Cg661_289 ln_X67/X0/12:2 0 6.84024e-18
Cg661_290 ln_X67/X0/12:3 0 3.40457e-17
Cg661_291 ln_X67/X0/12:4 0 3.40457e-17
Cg661_292 ln_X67/X0/12:5 0 2.46475e-17
Cg661_293 ln_X67/X0/12:6 0 2.27569e-17
Cg661_294 ln_X67/X0/12:7 0 1.2699e-17
R661_519 ld_X67/X0/X14:GATE ln_X67/X0/12:1 2171.41
R661_520 ld_X67/X0/X14:GATE ln_X67/X0/12:2 2171.41
R661_521 ln_X67/X0/12:1 ln_X67/X0/12:6 129.208
R661_522 ln_X67/X0/12:2 ln_X67/X0/12:5 258.526
R661_523 ld_X67/X0/X12:GATE ln_X67/X0/12:3 651.253
R661_524 ld_X67/X0/X12:GATE ln_X67/X0/12:4 651.946
R661_525 ln_X67/X0/12:3 ln_X67/X0/12:5 103.828
R661_526 ln_X67/X0/12:4 ln_X67/X0/12:7 51.7814
*|NET ln_X58/9 0.000226289PF
*|I (ld_X58/X6:GATE ld_X58/X6 GATE I 0 1.13296 3.31194)
*|I (ld_X58/X4:GATE ld_X58/X4 GATE I 0 1.13296 3.02398)
*|S (ln_X58/9:1 1.1249 3.235)
*|S (ln_X58/9:2 1.1249 3.38898)
*|S (ln_X58/9:3 1.1249 2.94694)
*|S (ln_X58/9:4 1.1249 3.10092)
*|S (ln_X58/9:5 1.1249 2.90398)
*|S (ln_X58/9:6 1.11694 3.16796)
*|S (ln_X58/9:7 1.1249 3.43194)
Cg646_295 ln_X58/9:1 0 3.58533e-17
Cg646_296 ln_X58/9:2 0 3.58533e-17
Cg646_297 ln_X58/9:3 0 3.40281e-17
Cg646_298 ln_X58/9:4 0 3.40281e-17
Cg646_299 ln_X58/9:5 0 3.41262e-17
Cg646_300 ln_X58/9:6 0 2.73743e-17
Cg646_301 ln_X58/9:7 0 1.43191e-17
R646_527 ld_X58/X6:GATE ln_X58/9:1 2169.11
R646_528 ld_X58/X6:GATE ln_X58/9:2 2171.41
R646_529 ln_X58/9:1 ln_X58/9:6 259.076
R646_530 ln_X58/9:2 ln_X58/9:7 129.208
R646_531 ld_X58/X4:GATE ln_X58/9:3 651.946
R646_532 ld_X58/X4:GATE ln_X58/9:4 651.253
R646_533 ln_X58/9:3 ln_X58/9:5 51.7814
R646_534 ln_X58/9:4 ln_X58/9:6 103.828
*|NET ln_X68/X0/12 0.000232364PF
*|I (ld_X68/X0/X14:GATE ld_X68/X0/X14 GATE I 0 1.13296 3.6)
*|I (ld_X68/X0/X12:GATE ld_X68/X0/X12 GATE I 0 1.13296 3.88796)
*|S (ln_X68/X0/12:1 1.1249 3.52296)
*|S (ln_X68/X0/12:2 1.1249 3.67694)
*|S (ln_X68/X0/12:3 1.1249 3.81092)
*|S (ln_X68/X0/12:4 1.1249 3.965)
*|S (ln_X68/X0/12:5 1.1249 3.74398)
*|S (ln_X68/X0/12:6 1.1249 3.48)
*|S (ln_X68/X0/12:7 1.1249 4.00796)
Cg665_302 ln_X68/X0/12:1 0 3.22968e-18
Cg665_303 ln_X68/X0/12:2 0 6.74016e-18
Cg665_304 ln_X68/X0/12:3 0 3.41452e-17
Cg665_305 ln_X68/X0/12:4 0 3.41452e-17
Cg665_306 ln_X68/X0/12:5 0 2.45849e-17
Cg665_307 ln_X68/X0/12:6 0 2.65254e-17
Cg665_308 ln_X68/X0/12:7 0 1.27078e-17
R665_535 ld_X68/X0/X14:GATE ln_X68/X0/12:1 2171.41
R665_536 ld_X68/X0/X14:GATE ln_X68/X0/12:2 2169.11
R665_537 ln_X68/X0/12:1 ln_X68/X0/12:6 129.208
R665_538 ln_X68/X0/12:2 ln_X68/X0/12:5 259.076
R665_539 ld_X68/X0/X12:GATE ln_X68/X0/12:3 651.946
R665_540 ld_X68/X0/X12:GATE ln_X68/X0/12:4 651.946
R665_541 ln_X68/X0/12:3 ln_X68/X0/12:5 103.607
R665_542 ln_X68/X0/12:4 ln_X68/X0/12:7 51.7814
*|NET ln_X69/X0/12 0.00022826PF
*|I (ld_X69/X0/X14:GATE ld_X69/X0/X14 GATE I 0 1.13296 4.46398)
*|I (ld_X69/X0/X12:GATE ld_X69/X0/X12 GATE I 0 1.13296 4.17592)
*|S (ln_X69/X0/12:1 1.1249 4.38694)
*|S (ln_X69/X0/12:2 1.1249 4.54092)
*|S (ln_X69/X0/12:3 1.1249 4.09898)
*|S (ln_X69/X0/12:4 1.1249 4.25296)
*|S (ln_X69/X0/12:5 1.1249 4.05592)
*|S (ln_X69/X0/12:6 1.11694 4.32)
*|S (ln_X69/X0/12:7 1.1249 4.58398)
Cg669_309 ln_X69/X0/12:1 0 3.2296e-18
Cg669_310 ln_X69/X0/12:2 0 3.2296e-18
Cg669_311 ln_X69/X0/12:3 0 3.40609e-17
Cg669_312 ln_X69/X0/12:4 0 3.40609e-17
Cg669_313 ln_X69/X0/12:5 0 3.40342e-17
Cg669_314 ln_X69/X0/12:6 0 2.22669e-17
Cg669_315 ln_X69/X0/12:7 0 6.96889e-18
R669_543 ld_X69/X0/X14:GATE ln_X69/X0/12:1 2171.41
R669_544 ld_X69/X0/X14:GATE ln_X69/X0/12:2 2169.11
R669_545 ln_X69/X0/12:1 ln_X69/X0/12:6 258.526
R669_546 ln_X69/X0/12:2 ln_X69/X0/12:7 129.758
R669_547 ld_X69/X0/X12:GATE ln_X69/X0/12:3 651.253
R669_548 ld_X69/X0/X12:GATE ln_X69/X0/12:4 651.946
R669_549 ln_X69/X0/12:3 ln_X69/X0/12:5 52.002
R669_550 ln_X69/X0/12:4 ln_X69/X0/12:6 103.828
*|NET ln_X70/X0/12 0.000228803PF
*|I (ld_X70/X0/X14:GATE ld_X70/X0/X14 GATE I 0 1.13296 4.75194)
*|I (ld_X70/X0/X12:GATE ld_X70/X0/X12 GATE I 0 1.13296 5.04)
*|S (ln_X70/X0/12:1 1.1249 4.675)
*|S (ln_X70/X0/12:2 1.1249 4.82898)
*|S (ln_X70/X0/12:3 1.1249 4.96296)
*|S (ln_X70/X0/12:4 1.1249 5.11694)
*|S (ln_X70/X0/12:5 1.1249 4.89592)
*|S (ln_X70/X0/12:6 1.1249 4.63194)
*|S (ln_X70/X0/12:7 1.1249 5.16)
Cg673_316 ln_X70/X0/12:1 0 3.2296e-18
Cg673_317 ln_X70/X0/12:2 0 6.82751e-18
Cg673_318 ln_X70/X0/12:3 0 3.40457e-17
Cg673_319 ln_X70/X0/12:4 0 3.40457e-17
Cg673_320 ln_X70/X0/12:5 0 2.4659e-17
Cg673_321 ln_X70/X0/12:6 0 2.29078e-17
Cg673_322 ln_X70/X0/12:7 0 1.27362e-17
R673_551 ld_X70/X0/X14:GATE ln_X70/X0/12:1 2169.11
R673_552 ld_X70/X0/X14:GATE ln_X70/X0/12:2 2171.41
R673_553 ln_X70/X0/12:1 ln_X70/X0/12:6 129.758
R673_554 ln_X70/X0/12:2 ln_X70/X0/12:5 258.526
R673_555 ld_X70/X0/X12:GATE ln_X70/X0/12:3 651.946
R673_556 ld_X70/X0/X12:GATE ln_X70/X0/12:4 651.253
R673_557 ln_X70/X0/12:3 ln_X70/X0/12:5 103.828
R673_558 ln_X70/X0/12:4 ln_X70/X0/12:7 52.002
*|NET ln_X71/X0/12 0.000228336PF
*|I (ld_X71/X0/X14:GATE ld_X71/X0/X14 GATE I 0 1.13296 5.61592)
*|I (ld_X71/X0/X12:GATE ld_X71/X0/X12 GATE I 0 1.13296 5.32796)
*|S (ln_X71/X0/12:1 1.1249 5.53898)
*|S (ln_X71/X0/12:2 1.1249 5.69296)
*|S (ln_X71/X0/12:3 1.1249 5.25092)
*|S (ln_X71/X0/12:4 1.1249 5.405)
*|S (ln_X71/X0/12:5 1.1249 5.20796)
*|S (ln_X71/X0/12:6 1.11694 5.47194)
*|S (ln_X71/X0/12:7 1.1249 5.73592)
Cg677_323 ln_X71/X0/12:1 0 3.22968e-18
Cg677_324 ln_X71/X0/12:2 0 3.22968e-18
Cg677_325 ln_X71/X0/12:3 0 3.41206e-17
Cg677_326 ln_X71/X0/12:4 0 3.41206e-17
Cg677_327 ln_X71/X0/12:5 0 3.39743e-17
Cg677_328 ln_X71/X0/12:6 0 2.2363e-17
Cg677_329 ln_X71/X0/12:7 0 6.93348e-18
R677_559 ld_X71/X0/X14:GATE ln_X71/X0/12:1 2169.11
R677_560 ld_X71/X0/X14:GATE ln_X71/X0/12:2 2171.41
R677_561 ln_X71/X0/12:1 ln_X71/X0/12:6 259.076
R677_562 ln_X71/X0/12:2 ln_X71/X0/12:7 129.208
R677_563 ld_X71/X0/X12:GATE ln_X71/X0/12:3 651.946
R677_564 ld_X71/X0/X12:GATE ln_X71/X0/12:4 651.946
R677_565 ln_X71/X0/12:3 ln_X71/X0/12:5 51.7814
R677_566 ln_X71/X0/12:4 ln_X71/X0/12:6 103.607
*|NET ln_X72/X0/12 0.000228633PF
*|I (ld_X72/X0/X14:GATE ld_X72/X0/X14 GATE I 0 1.13296 5.90398)
*|I (ld_X72/X0/X12:GATE ld_X72/X0/X12 GATE I 0 1.13296 6.19194)
*|S (ln_X72/X0/12:1 1.1249 5.82694)
*|S (ln_X72/X0/12:2 1.1249 5.98092)
*|S (ln_X72/X0/12:3 1.1249 6.115)
*|S (ln_X72/X0/12:4 1.1249 6.26898)
*|S (ln_X72/X0/12:5 1.1249 6.04796)
*|S (ln_X72/X0/12:6 1.1249 5.78398)
*|S (ln_X72/X0/12:7 1.1249 6.31194)
Cg681_330 ln_X72/X0/12:1 0 3.22962e-18
Cg681_331 ln_X72/X0/12:2 0 6.76801e-18
Cg681_332 ln_X72/X0/12:3 0 3.40881e-17
Cg681_333 ln_X72/X0/12:4 0 3.40881e-17
Cg681_334 ln_X72/X0/12:5 0 2.4557e-17
Cg681_335 ln_X72/X0/12:6 0 2.28297e-17
Cg681_336 ln_X72/X0/12:7 0 1.27003e-17
R681_567 ld_X72/X0/X14:GATE ln_X72/X0/12:1 2171.41
R681_568 ld_X72/X0/X14:GATE ln_X72/X0/12:2 2169.11
R681_569 ln_X72/X0/12:1 ln_X72/X0/12:6 129.208
R681_570 ln_X72/X0/12:2 ln_X72/X0/12:5 259.076
R681_571 ld_X72/X0/X12:GATE ln_X72/X0/12:3 651.253
R681_572 ld_X72/X0/X12:GATE ln_X72/X0/12:4 651.946
R681_573 ln_X72/X0/12:3 ln_X72/X0/12:5 103.828
R681_574 ln_X72/X0/12:4 ln_X72/X0/12:7 51.7814
*|NET ln_X73/X0/12 0.000231794PF
*|I (ld_X73/X0/X14:GATE ld_X73/X0/X14 GATE I 0 1.13296 6.76796)
*|I (ld_X73/X0/X12:GATE ld_X73/X0/X12 GATE I 0 1.13296 6.48)
*|S (ln_X73/X0/12:1 1.1249 6.69092)
*|S (ln_X73/X0/12:2 1.1249 6.845)
*|S (ln_X73/X0/12:3 1.1249 6.40296)
*|S (ln_X73/X0/12:4 1.1249 6.55694)
*|S (ln_X73/X0/12:5 1.1249 6.36)
*|S (ln_X73/X0/12:6 1.11694 6.62398)
*|S (ln_X73/X0/12:7 1.1249 6.88796)
Cg685_337 ln_X73/X0/12:1 0 3.23086e-18
Cg685_338 ln_X73/X0/12:2 0 3.23086e-18
Cg685_339 ln_X73/X0/12:3 0 3.4088e-17
Cg685_340 ln_X73/X0/12:4 0 3.4088e-17
Cg685_341 ln_X73/X0/12:5 0 3.40069e-17
Cg685_342 ln_X73/X0/12:6 0 2.2289e-17
Cg685_343 ln_X73/X0/12:7 0 1.04351e-17
R685_575 ld_X73/X0/X14:GATE ln_X73/X0/12:1 2171.41
R685_576 ld_X73/X0/X14:GATE ln_X73/X0/12:2 2171.41
R685_577 ln_X73/X0/12:1 ln_X73/X0/12:6 258.526
R685_578 ln_X73/X0/12:2 ln_X73/X0/12:7 129.208
R685_579 ld_X73/X0/X12:GATE ln_X73/X0/12:3 651.946
R685_580 ld_X73/X0/X12:GATE ln_X73/X0/12:4 651.253
R685_581 ln_X73/X0/12:3 ln_X73/X0/12:5 51.7814
R685_582 ln_X73/X0/12:4 ln_X73/X0/12:6 103.828
*|NET ln_X74/X0/12 0.000228345PF
*|I (ld_X74/X0/X14:GATE ld_X74/X0/X14 GATE I 0 1.13296 7.92)
*|I (ld_X74/X0/X12:GATE ld_X74/X0/X12 GATE I 0 1.13296 7.63194)
*|S (ln_X74/X0/12:1 1.1249 7.84296)
*|S (ln_X74/X0/12:2 1.1249 7.99694)
*|S (ln_X74/X0/12:3 1.1249 7.555)
*|S (ln_X74/X0/12:4 1.1249 7.70898)
*|S (ln_X74/X0/12:5 1.1249 7.51194)
*|S (ln_X74/X0/12:6 1.11694 7.77592)
*|S (ln_X74/X0/12:7 1.1249 8.04)
Cg689_344 ln_X74/X0/12:1 0 3.2296e-18
Cg689_345 ln_X74/X0/12:2 0 3.2296e-18
Cg689_346 ln_X74/X0/12:3 0 3.40314e-17
Cg689_347 ln_X74/X0/12:4 0 3.40314e-17
Cg689_348 ln_X74/X0/12:5 0 3.40912e-17
Cg689_349 ln_X74/X0/12:6 0 2.24177e-17
Cg689_350 ln_X74/X0/12:7 0 6.95146e-18
R689_583 ld_X74/X0/X14:GATE ln_X74/X0/12:1 2171.41
R689_584 ld_X74/X0/X14:GATE ln_X74/X0/12:2 2169.11
R689_585 ln_X74/X0/12:1 ln_X74/X0/12:6 259.076
R689_586 ln_X74/X0/12:2 ln_X74/X0/12:7 129.758
R689_587 ld_X74/X0/X12:GATE ln_X74/X0/12:3 651.253
R689_588 ld_X74/X0/X12:GATE ln_X74/X0/12:4 651.946
R689_589 ln_X74/X0/12:3 ln_X74/X0/12:5 52.002
R689_590 ln_X74/X0/12:4 ln_X74/X0/12:6 103.607
*|NET ln_X75/X0/12 0.000228732PF
*|I (ld_X75/X0/X14:GATE ld_X75/X0/X14 GATE I 0 1.13296 8.20796)
*|I (ld_X75/X0/X12:GATE ld_X75/X0/X12 GATE I 0 1.13296 8.49592)
*|S (ln_X75/X0/12:1 1.1249 8.13092)
*|S (ln_X75/X0/12:2 1.1249 8.285)
*|S (ln_X75/X0/12:3 1.1249 8.41898)
*|S (ln_X75/X0/12:4 1.1249 8.57296)
*|S (ln_X75/X0/12:5 1.1249 8.35194)
*|S (ln_X75/X0/12:6 1.1249 8.08796)
*|S (ln_X75/X0/12:7 1.1249 8.61592)
Cg693_351 ln_X75/X0/12:1 0 3.23086e-18
Cg693_352 ln_X75/X0/12:2 0 6.84573e-18
Cg693_353 ln_X75/X0/12:3 0 3.40457e-17
Cg693_354 ln_X75/X0/12:4 0 3.40457e-17
Cg693_355 ln_X75/X0/12:5 0 2.47245e-17
Cg693_356 ln_X75/X0/12:6 0 2.2722e-17
Cg693_357 ln_X75/X0/12:7 0 1.26918e-17
R693_591 ld_X75/X0/X14:GATE ln_X75/X0/12:1 2171.41
R693_592 ld_X75/X0/X14:GATE ln_X75/X0/12:2 2171.41
R693_593 ln_X75/X0/12:1 ln_X75/X0/12:6 129.208
R693_594 ln_X75/X0/12:2 ln_X75/X0/12:5 258.526
R693_595 ld_X75/X0/X12:GATE ln_X75/X0/12:3 651.253
R693_596 ld_X75/X0/X12:GATE ln_X75/X0/12:4 651.946
R693_597 ln_X75/X0/12:3 ln_X75/X0/12:5 103.828
R693_598 ln_X75/X0/12:4 ln_X75/X0/12:7 51.7814
*|NET ln_X76/X0/12 0.00022821PF
*|I (ld_X76/X0/X14:GATE ld_X76/X0/X14 GATE I 0 1.13296 9.07194)
*|I (ld_X76/X0/X12:GATE ld_X76/X0/X12 GATE I 0 1.13296 8.78398)
*|S (ln_X76/X0/12:1 1.1249 8.995)
*|S (ln_X76/X0/12:2 1.1249 9.14898)
*|S (ln_X76/X0/12:3 1.1249 8.70694)
*|S (ln_X76/X0/12:4 1.1249 8.86092)
*|S (ln_X76/X0/12:5 1.1249 8.66398)
*|S (ln_X76/X0/12:6 1.11694 8.92796)
*|S (ln_X76/X0/12:7 1.1249 9.19194)
Cg697_358 ln_X76/X0/12:1 0 3.22962e-18
Cg697_359 ln_X76/X0/12:2 0 3.22962e-18
Cg697_360 ln_X76/X0/12:3 0 3.40458e-17
Cg697_361 ln_X76/X0/12:4 0 3.40458e-17
Cg697_362 ln_X76/X0/12:5 0 3.40723e-17
Cg697_363 ln_X76/X0/12:6 0 2.24403e-17
Cg697_364 ln_X76/X0/12:7 0 6.92814e-18
R697_599 ld_X76/X0/X14:GATE ln_X76/X0/12:1 2169.11
R697_600 ld_X76/X0/X14:GATE ln_X76/X0/12:2 2171.41
R697_601 ln_X76/X0/12:1 ln_X76/X0/12:6 259.076
R697_602 ln_X76/X0/12:2 ln_X76/X0/12:7 129.208
R697_603 ld_X76/X0/X12:GATE ln_X76/X0/12:3 651.946
R697_604 ld_X76/X0/X12:GATE ln_X76/X0/12:4 651.253
R697_605 ln_X76/X0/12:3 ln_X76/X0/12:5 51.7814
R697_606 ln_X76/X0/12:4 ln_X76/X0/12:6 103.828
*|NET ln_X77/X0/12 0.000228439PF
*|I (ld_X77/X0/X14:GATE ld_X77/X0/X14 GATE I 0 1.13296 9.36)
*|I (ld_X77/X0/X12:GATE ld_X77/X0/X12 GATE I 0 1.13296 9.64796)
*|S (ln_X77/X0/12:1 1.1249 9.28296)
*|S (ln_X77/X0/12:2 1.1249 9.43694)
*|S (ln_X77/X0/12:3 1.1249 9.50398)
*|S (ln_X77/X0/12:4 1.1249 9.24)
*|S (ln_X77/X0/12:5 1.1249 9.57092)
*|S (ln_X77/X0/12:6 1.1249 9.76796)
*|S (ln_X77/X0/12:7 1.1249 9.725)
Cg701_365 ln_X77/X0/12:1 0 3.22968e-18
Cg701_366 ln_X77/X0/12:2 0 6.69071e-18
Cg701_367 ln_X77/X0/12:3 0 2.45472e-17
Cg701_368 ln_X77/X0/12:4 0 2.2696e-17
Cg701_369 ln_X77/X0/12:5 0 3.40457e-17
Cg701_370 ln_X77/X0/12:6 0 1.28311e-17
Cg701_371 ln_X77/X0/12:7 0 3.40457e-17
R701_607 ld_X77/X0/X14:GATE ln_X77/X0/12:1 2171.41
R701_608 ld_X77/X0/X14:GATE ln_X77/X0/12:2 2169.11
R701_609 ln_X77/X0/12:1 ln_X77/X0/12:4 129.208
R701_610 ln_X77/X0/12:2 ln_X77/X0/12:3 259.076
R701_611 ln_X77/X0/12:3 ln_X77/X0/12:5 103.607
R701_612 ln_X77/X0/12:5 ld_X77/X0/X12:GATE 651.946
R701_613 ln_X77/X0/12:6 ln_X77/X0/12:7 51.7814
R701_614 ln_X77/X0/12:7 ld_X77/X0/X12:GATE 651.946
*|NET ln_X59/9 0.000226644PF
*|I (ld_X59/X6:GATE ld_X59/X6 GATE I 0 1.13296 7.05592)
*|I (ld_X59/X4:GATE ld_X59/X4 GATE I 0 1.13296 7.34398)
*|S (ln_X59/9:1 1.1249 7.13296)
*|S (ln_X59/9:2 1.1249 6.97898)
*|S (ln_X59/9:3 1.1249 7.26694)
*|S (ln_X59/9:4 1.1249 7.42092)
*|S (ln_X59/9:5 1.1249 7.2)
*|S (ln_X59/9:6 1.1249 6.93592)
*|S (ln_X59/9:7 1.1249 7.46398)
Cg648_372 ln_X59/9:1 0 4.1394e-17
Cg648_373 ln_X59/9:2 0 3.58547e-17
Cg648_374 ln_X59/9:3 0 3.40266e-17
Cg648_375 ln_X59/9:4 0 3.40266e-17
Cg648_376 ln_X59/9:5 0 2.45828e-17
Cg648_377 ln_X59/9:6 0 3.33276e-17
Cg648_378 ln_X59/9:7 0 1.27302e-17
R648_615 ln_X59/9:1 ld_X59/X6:GATE 2171.41
R648_616 ln_X59/9:1 ln_X59/9:5 259.076
R648_617 ld_X59/X6:GATE ln_X59/9:2 2169.11
R648_618 ln_X59/9:2 ln_X59/9:6 129.758
R648_619 ld_X59/X4:GATE ln_X59/9:3 651.946
R648_620 ld_X59/X4:GATE ln_X59/9:4 651.253
R648_621 ln_X59/9:3 ln_X59/9:5 103.607
R648_622 ln_X59/9:4 ln_X59/9:7 52.002
*|I (ld_X64/X0/X13:SRC ld_X64/X0/X13 SRC B 0 1.74643 0.72)
Cg221_423 ld_X64/X0/X13:SRC 0 1.20257e-18
*|I (ld_X65/X0/X13:SRC ld_X65/X0/X13 SRC B 0 1.74643 1.58398)
Cg230_516 ld_X65/X0/X13:SRC 0 1.22469e-18
*|I (ld_X66/X0/X13:SRC ld_X66/X0/X13 SRC B 0 1.74643 1.87194)
Cg238_617 ld_X66/X0/X13:SRC 0 1.22469e-18
*|I (ld_X67/X0/X13:SRC ld_X67/X0/X13 SRC B 0 1.74643 2.73592)
Cg245_710 ld_X67/X0/X13:SRC 0 1.39475e-18
*|NET ln_X56/9 0.000237711PF
*|I (ld_X56/X14:GATE ld_X56/X14 GATE I 0 1.49296 3.31194)
*|I (ld_X56/X12:GATE ld_X56/X12 GATE I 0 1.49296 3.02398)
*|S (ln_X56/9:1 1.4849 3.235)
*|S (ln_X56/9:2 1.4849 3.38898)
*|S (ln_X56/9:3 1.4849 2.94694)
*|S (ln_X56/9:4 1.4849 3.10092)
*|S (ln_X56/9:5 1.4849 2.90398)
*|S (ln_X56/9:6 1.47694 3.16796)
*|S (ln_X56/9:7 1.4849 3.43194)
Cg642_767 ln_X56/9:1 0 3.57692e-17
Cg642_768 ln_X56/9:2 0 3.57692e-17
Cg642_769 ln_X56/9:3 0 3.38961e-17
Cg642_770 ln_X56/9:4 0 3.38961e-17
Cg642_771 ln_X56/9:5 0 1.93546e-17
Cg642_772 ln_X56/9:6 0 1.36935e-17
Cg642_773 ln_X56/9:7 0 1.31605e-17
R642_997 ld_X56/X14:GATE ln_X56/9:1 2169.11
R642_998 ld_X56/X14:GATE ln_X56/9:2 2171.41
R642_999 ln_X56/9:1 ln_X56/9:6 259.076
R642_1000 ln_X56/9:2 ln_X56/9:7 129.208
R642_1001 ld_X56/X12:GATE ln_X56/9:3 651.946
R642_1002 ld_X56/X12:GATE ln_X56/9:4 651.253
R642_1003 ln_X56/9:3 ln_X56/9:5 51.7814
R642_1004 ln_X56/9:4 ln_X56/9:6 103.828
*|I (ld_X68/X0/X13:SRC ld_X68/X0/X13 SRC B 0 1.74643 3.88796)
Cg253_818 ld_X68/X0/X13:SRC 0 1.39259e-18
*|I (ld_X69/X0/X13:SRC ld_X69/X0/X13 SRC B 0 1.74643 4.17592)
Cg261_919 ld_X69/X0/X13:SRC 0 1.27358e-18
*|I (ld_X70/X0/X13:SRC ld_X70/X0/X13 SRC B 0 1.74643 5.04)
Cg268_1013 ld_X70/X0/X13:SRC 0 1.2553e-18
*|I (ld_X71/X0/X13:SRC ld_X71/X0/X13 SRC B 0 1.74643 5.32796)
Cg276_1078 ld_X71/X0/X13:SRC 0 1.24641e-18
*|I (ld_X72/X0/X13:SRC ld_X72/X0/X13 SRC B 0 1.74643 6.19194)
Cg284_1176 ld_X72/X0/X13:SRC 0 1.27433e-18
*|I (ld_X73/X0/X13:SRC ld_X73/X0/X13 SRC B 0 1.74643 6.48)
Cg292_1274 ld_X73/X0/X13:SRC 0 1.3751e-18
*|I (ld_X74/X0/X13:SRC ld_X74/X0/X13 SRC B 0 1.74643 7.63194)
Cg299_1370 ld_X74/X0/X13:SRC 0 1.3529e-18
*|I (ld_X75/X0/X13:SRC ld_X75/X0/X13 SRC B 0 1.74643 8.49592)
Cg307_1467 ld_X75/X0/X13:SRC 0 1.20521e-18
*|I (ld_X76/X0/X13:SRC ld_X76/X0/X13 SRC B 0 1.74643 8.78398)
Cg315_1565 ld_X76/X0/X13:SRC 0 1.20368e-18
*|I (ld_X77/X0/X13:SRC ld_X77/X0/X13 SRC B 0 1.74643 9.64796)
Cg322_1661 ld_X77/X0/X13:SRC 0 1.19991e-18
*|NET ln_X57/9 0.000237987PF
*|I (ld_X57/X14:GATE ld_X57/X14 GATE I 0 1.49296 7.05592)
*|I (ld_X57/X12:GATE ld_X57/X12 GATE I 0 1.49296 7.34398)
*|S (ln_X57/9:1 1.4849 7.13296)
*|S (ln_X57/9:2 1.4849 6.97898)
*|S (ln_X57/9:3 1.4849 7.26694)
*|S (ln_X57/9:4 1.4849 7.42092)
*|S (ln_X57/9:5 1.4849 7.2)
*|S (ln_X57/9:6 1.4849 6.93592)
*|S (ln_X57/9:7 1.4849 7.46398)
Cg644_1753 ln_X57/9:1 0 3.94703e-17
Cg644_1754 ln_X57/9:2 0 3.57992e-17
Cg644_1755 ln_X57/9:3 0 3.39054e-17
Cg644_1756 ln_X57/9:4 0 3.39054e-17
Cg644_1757 ln_X57/9:5 0 9.12038e-18
Cg644_1758 ln_X57/9:6 0 2.05273e-17
Cg644_1759 ln_X57/9:7 0 1.29699e-17
R644_1940 ln_X57/9:1 ln_X57/9:5 259.076
R644_1941 ln_X57/9:1 ld_X57/X14:GATE 2171.41
R644_1942 ld_X57/X14:GATE ln_X57/9:2 2169.11
R644_1943 ln_X57/9:2 ln_X57/9:6 129.758
R644_1944 ld_X57/X12:GATE ln_X57/9:3 651.946
R644_1945 ld_X57/X12:GATE ln_X57/9:4 651.253
R644_1946 ln_X57/9:3 ln_X57/9:5 103.607
R644_1947 ln_X57/9:4 ln_X57/9:7 52.002
*|I (ld_X65/X0/X14:SRC ld_X65/X0/X14 SRC B 0 1.13347 1.29592)
*|I (ld_X67/X0/X14:SRC ld_X67/X0/X14 SRC B 0 1.13347 2.44796)
*|I (ld_X68/X0/X14:SRC ld_X68/X0/X14 SRC B 0 1.13347 3.6)
*|I (ld_X72/X0/X14:SRC ld_X72/X0/X14 SRC B 0 1.13347 5.90398)
*|I (ld_X75/X0/X14:SRC ld_X75/X0/X14 SRC B 0 1.13347 8.20796)
*|I (ld_X77/X0/X14:SRC ld_X77/X0/X14 SRC B 0 1.13347 9.36)
*|NET ln_X64/X0/13 0.000233PF
*|I (ld_X64/X0/X15:GATE ld_X64/X0/X15 GATE I 0 1.74694 1.00796)
*|I (ld_X64/X0/X13:GATE ld_X64/X0/X13 GATE I 0 1.74694 0.72)
*|S (ln_X64/X0/13:1 1.7549 0.930918)
*|S (ln_X64/X0/13:2 1.7549 1.085)
*|S (ln_X64/X0/13:3 1.7549 0.796939)
*|S (ln_X64/X0/13:4 1.7549 0.642959)
*|S (ln_X64/X0/13:5 1.74694 0.86398)
*|S (ln_X64/X0/13:6 1.7549 1.12796)
*|S (ln_X64/X0/13:7 1.7549 0.6)
Cg650_2304 ln_X64/X0/13:1 0 3.59778e-17
Cg650_2305 ln_X64/X0/13:2 0 3.59778e-17
C650_2306 ln_X64/X0/13:3 ld_X64/X0/X13:SRC 2.05808e-17
Cg650_2309 ln_X64/X0/13:3 0 3.37602e-18
C650_2310 ln_X64/X0/13:4 ld_X64/X0/X13:SRC 2.05808e-17
Cg650_2313 ln_X64/X0/13:4 0 3.37602e-18
C650_2316 ln_X64/X0/13:5 ld_X64/X0/X13:SRC 3.0945e-20
Cg650_2317 ln_X64/X0/13:5 0 1.48405e-17
Cg650_2318 ln_X64/X0/13:6 0 1.32896e-17
C650_2320 ln_X64/X0/13:7 ld_X64/X0/X13:SRC 2.09656e-19
Cg650_2323 ln_X64/X0/13:7 0 1.07631e-17
R650_2212 ld_X64/X0/X15:GATE ln_X64/X0/13:1 2171.41
R650_2213 ld_X64/X0/X15:GATE ln_X64/X0/13:2 2171.41
R650_2214 ln_X64/X0/13:1 ln_X64/X0/13:5 258.526
R650_2215 ln_X64/X0/13:2 ln_X64/X0/13:6 129.208
R650_2216 ln_X64/X0/13:3 ld_X64/X0/X13:GATE 651.253
R650_2217 ln_X64/X0/13:3 ln_X64/X0/13:5 103.828
R650_2218 ln_X64/X0/13:4 ld_X64/X0/X13:GATE 651.946
R650_2219 ln_X64/X0/13:4 ln_X64/X0/13:7 51.7814
*|NET ln_X66/X0/13 0.000233681PF
*|I (ld_X66/X0/X15:GATE ld_X66/X0/X15 GATE I 0 1.74694 2.16)
*|I (ld_X66/X0/X13:GATE ld_X66/X0/X13 GATE I 0 1.74694 1.87194)
*|S (ln_X66/X0/13:1 1.7549 2.08296)
*|S (ln_X66/X0/13:2 1.7549 2.23694)
*|S (ln_X66/X0/13:3 1.7549 1.94898)
*|S (ln_X66/X0/13:4 1.7549 1.795)
*|S (ln_X66/X0/13:5 1.74694 2.01592)
*|S (ln_X66/X0/13:6 1.7549 2.28)
*|S (ln_X66/X0/13:7 1.7549 1.75194)
Cg658_2324 ln_X66/X0/13:1 0 3.59596e-17
Cg658_2325 ln_X66/X0/13:2 0 3.59596e-17
C658_2326 ln_X66/X0/13:3 ld_X66/X0/X13:SRC 2.05808e-17
Cg658_2329 ln_X66/X0/13:3 0 3.40378e-18
C658_2330 ln_X66/X0/13:4 ld_X66/X0/X13:SRC 2.05808e-17
Cg658_2333 ln_X66/X0/13:4 0 3.40378e-18
C658_2336 ln_X66/X0/13:5 ld_X66/X0/X13:SRC 3.07957e-20
Cg658_2337 ln_X66/X0/13:5 0 1.50963e-17
Cg658_2338 ln_X66/X0/13:6 0 1.33153e-17
C658_2342 ln_X66/X0/13:7 ld_X66/X0/X13:SRC 2.05893e-19
Cg658_2343 ln_X66/X0/13:7 0 1.18852e-17
R658_2220 ld_X66/X0/X15:GATE ln_X66/X0/13:1 2171.41
R658_2221 ld_X66/X0/X15:GATE ln_X66/X0/13:2 2169.11
R658_2222 ln_X66/X0/13:1 ln_X66/X0/13:5 259.076
R658_2223 ln_X66/X0/13:2 ln_X66/X0/13:6 129.758
R658_2224 ln_X66/X0/13:3 ld_X66/X0/X13:GATE 651.946
R658_2225 ln_X66/X0/13:3 ln_X66/X0/13:5 103.607
R658_2226 ln_X66/X0/13:4 ld_X66/X0/X13:GATE 651.253
R658_2227 ln_X66/X0/13:4 ln_X66/X0/13:7 52.002
*|NET ln_X69/X0/13 0.000233642PF
*|I (ld_X69/X0/X15:GATE ld_X69/X0/X15 GATE I 0 1.74694 4.46398)
*|I (ld_X69/X0/X13:GATE ld_X69/X0/X13 GATE I 0 1.74694 4.17592)
*|S (ln_X69/X0/13:1 1.7549 4.38694)
*|S (ln_X69/X0/13:2 1.7549 4.54092)
*|S (ln_X69/X0/13:3 1.7549 4.25296)
*|S (ln_X69/X0/13:4 1.7549 4.09898)
*|S (ln_X69/X0/13:5 1.74694 4.32)
*|S (ln_X69/X0/13:6 1.7549 4.58398)
*|S (ln_X69/X0/13:7 1.7549 4.05592)
Cg670_2344 ln_X69/X0/13:1 0 3.59601e-17
Cg670_2345 ln_X69/X0/13:2 0 3.59601e-17
C670_2346 ln_X69/X0/13:3 ld_X69/X0/X13:SRC 2.05808e-17
Cg670_2349 ln_X69/X0/13:3 0 3.40373e-18
C670_2350 ln_X69/X0/13:4 ld_X69/X0/X13:SRC 2.05808e-17
Cg670_2353 ln_X69/X0/13:4 0 3.40373e-18
C670_2354 ln_X69/X0/13:5 ld_X69/X0/X13:SRC 3.0945e-20
Cg670_2357 ln_X69/X0/13:5 0 1.50939e-17
Cg670_2358 ln_X69/X0/13:6 0 1.33125e-17
C670_2359 ln_X69/X0/13:7 ld_X69/X0/X13:SRC 2.103e-19
Cg670_2363 ln_X69/X0/13:7 0 1.18502e-17
R670_2228 ld_X69/X0/X15:GATE ln_X69/X0/13:1 2171.41
R670_2229 ld_X69/X0/X15:GATE ln_X69/X0/13:2 2169.11
R670_2230 ln_X69/X0/13:1 ln_X69/X0/13:5 258.526
R670_2231 ln_X69/X0/13:2 ln_X69/X0/13:6 129.758
R670_2232 ln_X69/X0/13:3 ld_X69/X0/X13:GATE 651.946
R670_2233 ln_X69/X0/13:3 ln_X69/X0/13:5 103.828
R670_2234 ln_X69/X0/13:4 ld_X69/X0/X13:GATE 651.253
R670_2235 ln_X69/X0/13:4 ln_X69/X0/13:7 52.002
*|NET ln_X71/X0/13 0.000233621PF
*|I (ld_X71/X0/X15:GATE ld_X71/X0/X15 GATE I 0 1.74694 5.61592)
*|I (ld_X71/X0/X13:GATE ld_X71/X0/X13 GATE I 0 1.74694 5.32796)
*|S (ln_X71/X0/13:1 1.7549 5.53898)
*|S (ln_X71/X0/13:2 1.7549 5.69296)
*|S (ln_X71/X0/13:3 1.7549 5.25092)
*|S (ln_X71/X0/13:4 1.7549 5.405)
*|S (ln_X71/X0/13:5 1.74694 5.47194)
*|S (ln_X71/X0/13:6 1.7549 5.73592)
*|S (ln_X71/X0/13:7 1.7549 5.20796)
Cg678_2364 ln_X71/X0/13:1 0 3.59665e-17
Cg678_2365 ln_X71/X0/13:2 0 3.59665e-17
C678_2366 ln_X71/X0/13:3 ld_X71/X0/X13:SRC 2.05915e-17
Cg678_2369 ln_X71/X0/13:3 0 3.40589e-18
C678_2370 ln_X71/X0/13:4 ld_X71/X0/X13:SRC 2.05915e-17
Cg678_2373 ln_X71/X0/13:4 0 3.40589e-18
C678_2375 ln_X71/X0/13:5 ld_X71/X0/X13:SRC 4.77416e-20
Cg678_2377 ln_X71/X0/13:5 0 1.50586e-17
Cg678_2378 ln_X71/X0/13:6 0 1.32799e-17
C678_2381 ln_X71/X0/13:7 ld_X71/X0/X13:SRC 2.09656e-19
Cg678_2383 ln_X71/X0/13:7 0 1.19303e-17