*
*|DSPF 1.3
*|DESIGN V2T
*|DATE "Mon Dec  9 05:17:48 2019"
*|VENDOR "Synopsys"
*|PROGRAM "StarRC"
*|VERSION "M-2016.12"
*|DIVIDER /
*|DELIMITER :
**FORMAT SPF
*
** COMMENTS
** OPERATING_TEMPERATURE 25
** GLOBAL_TEMPERATURE 25
** TCAD_GRD_FILE /tsmc16/pdk/latest/rc/star_rcxt/rcworst/Tech/rcworst_CCworst_T/cln16ffc_1p9m_2xa1xd3xe2z_mim_ut-alrdl_rcworst_CCworst_T.nxtgrd
**   TCAD_TIME_STAMP Wed Apr 27 03:21:55 2016
**   TCADGRD_VERSION 80
** HALF_NODE_SCALE_FACTOR 0.98
.SUBCKT V2T v2t_out VDD VSS Vcal Vin clk_v2t clk_v2t_e clk_v2t_eb clk_v2t_gated clk_v2t_l clk_v2t_lb clk_v2tb clk_v2tb_gated ctl[31] ctl[30] ctl[29] ctl[28] ctl[27] ctl[26] ctl[25] ctl[24] ctl[23] ctl[22] ctl[21] ctl[20] ctl[19] ctl[18] ctl[17] ctl[16] ctl[15] ctl[14] ctl[13] ctl[12] ctl[11] ctl[10] ctl[9] ctl[8] ctl[7] ctl[6] ctl[5] ctl[4] ctl[3] ctl[2] ctl[1] ctl[0] 
*|GROUND_NET 0
*|NET ln_X227/32 0.00048916PF
*|I (ld_X227/X40:GATE ld_X227/X40 GATE I 0 3.11296 10.6559)
*|S (ln_X227/32:1 3.1049 10.114)
*|S (ln_X227/32:2 3.1049 10.2909)
*|S (ln_X227/32:3 3.1049 11.0209)
*|S (ln_X227/32:4 3.1049 11.224)
Cg3683_1 ln_X227/32:1 0 1.09182e-16
Cg3683_2 ln_X227/32:2 0 1.38444e-16
Cg3683_3 ln_X227/32:3 0 1.38444e-16
Cg3683_4 ln_X227/32:4 0 3.63632e-17
R3683_1 ln_X227/32:1 ln_X227/32:2 851.737
R3683_2 ln_X227/32:2 ld_X227/X40:GATE 8681.97
R3683_3 ld_X227/X40:GATE ln_X227/32:3 8681.97
R3683_4 ln_X227/32:3 ln_X227/32:4 992.611
*|NET ln_X227/26 0.000475251PF
*|I (ld_X227/X38:GATE ld_X227/X38 GATE I 0 3.11296 9.50398)
*|S (ln_X227/26:1 3.1049 8.93592)
*|S (ln_X227/26:2 3.1049 9.13898)
*|S (ln_X227/26:3 3.1049 9.86898)
*|S (ln_X227/26:4 3.1049 10.0459)
C3681_5 ln_X227/26:1 ln_X227/32:1 6.22795e-17
C3681_6 ln_X227/26:1 ln_X227/32:4 2.30356e-18
Cg3681_7 ln_X227/26:1 0 1.1895e-16
Cg3681_8 ln_X227/26:2 0 1.32327e-16
Cg3681_9 ln_X227/26:3 0 1.32327e-16
C3681_10 ln_X227/26:4 ln_X227/32:1 2.14399e-18
Cg3681_11 ln_X227/26:4 0 2.49215e-17
R3681_5 ln_X227/26:1 ln_X227/26:2 397.8
R3681_6 ln_X227/26:2 ld_X227/X38:GATE 2606.68
R3681_7 ld_X227/X38:GATE ln_X227/26:3 2606.68
R3681_8 ln_X227/26:3 ln_X227/26:4 341.343
*|NET ln_X229/33 0.000486595PF
*|I (ld_X229/X41:GATE ld_X229/X41 GATE I 0 12.6109 10.6559)
*|S (ln_X229/33:1 12.6189 10.114)
*|S (ln_X229/33:2 12.6189 10.2909)
*|S (ln_X229/33:3 12.6189 11.0209)
*|S (ln_X229/33:4 12.6189 11.224)
Cg3692_12 ln_X229/33:1 0 1.07122e-16
Cg3692_13 ln_X229/33:2 0 1.38509e-16
Cg3692_14 ln_X229/33:3 0 1.38509e-16
Cg3692_15 ln_X229/33:4 0 3.41971e-17
R3692_9 ln_X229/33:1 ln_X229/33:2 851.737
R3692_10 ln_X229/33:2 ld_X229/X41:GATE 8681.97
R3692_11 ld_X229/X41:GATE ln_X229/33:3 8681.97
R3692_12 ln_X229/33:3 ln_X229/33:4 992.611
*|NET ln_X229/27 0.00047391PF
*|I (ld_X229/X39:GATE ld_X229/X39 GATE I 0 12.6109 9.50398)
*|S (ln_X229/27:1 12.6189 8.93592)
*|S (ln_X229/27:2 12.6189 9.13898)
*|S (ln_X229/27:3 12.6189 9.86898)
*|S (ln_X229/27:4 12.6189 10.0459)
C3690_16 ln_X229/27:1 ln_X229/33:1 6.32537e-17
C3690_17 ln_X229/27:1 ln_X229/33:4 2.79117e-18
Cg3690_18 ln_X229/27:1 0 1.16227e-16
Cg3690_19 ln_X229/27:2 0 1.32428e-16
Cg3690_20 ln_X229/27:3 0 1.32428e-16
C3690_21 ln_X229/27:4 ln_X229/33:1 2.21442e-18
Cg3690_22 ln_X229/27:4 0 2.45691e-17
R3690_13 ln_X229/27:1 ln_X229/27:2 397.8
R3690_14 ln_X229/27:2 ld_X229/X39:GATE 2606.68
R3690_15 ld_X229/X39:GATE ln_X229/27:3 2606.68
R3690_16 ln_X229/27:3 ln_X229/27:4 341.343
*|NET ln_X230/32 0.000488249PF
*|I (ld_X230/X40:GATE ld_X230/X40 GATE I 0 15.105 6.62398)
*|S (ln_X230/32:1 15.113 6.05592)
*|S (ln_X230/32:2 15.113 6.25898)
*|S (ln_X230/32:3 15.113 6.98898)
*|S (ln_X230/32:4 15.113 7.16592)
Cg3695_23 ln_X230/32:1 0 1.18422e-16
Cg3695_24 ln_X230/32:2 0 1.38436e-16
Cg3695_25 ln_X230/32:3 0 1.38436e-16
Cg3695_26 ln_X230/32:4 0 2.58963e-17
R3695_17 ln_X230/32:1 ln_X230/32:2 998.974
R3695_18 ln_X230/32:2 ld_X230/X40:GATE 8737.62
R3695_19 ld_X230/X40:GATE ln_X230/32:3 8737.62
R3695_20 ln_X230/32:3 ln_X230/32:4 857.197
*|NET ln_X230/26 0.000474502PF
*|I (ld_X230/X38:GATE ld_X230/X38 GATE I 0 15.105 7.77592)
*|S (ln_X230/26:1 15.113 7.23398)
*|S (ln_X230/26:2 15.113 7.41092)
*|S (ln_X230/26:3 15.113 8.14092)
*|S (ln_X230/26:4 15.113 8.34398)
C3693_27 ln_X230/26:1 ln_X230/32:1 6.24138e-17
C3693_28 ln_X230/26:1 ln_X230/32:4 2.136e-18
Cg3693_29 ln_X230/26:1 0 1.07808e-16
Cg3693_30 ln_X230/26:2 0 1.32318e-16
Cg3693_31 ln_X230/26:3 0 1.32318e-16
C3693_32 ln_X230/26:4 ln_X230/32:1 2.51029e-18
Cg3693_33 ln_X230/26:4 0 3.49984e-17
R3693_21 ln_X230/26:1 ln_X230/26:2 343.531
R3693_22 ln_X230/26:2 ld_X230/X38:GATE 2623.38
R3693_23 ld_X230/X38:GATE ln_X230/26:3 2623.38
R3693_24 ln_X230/26:3 ln_X230/26:4 400.35
*|NET ln_X226/26 0.000476115PF
*|I (ld_X226/X38:GATE ld_X226/X38 GATE I 0 3.11296 7.77592)
*|S (ln_X226/26:1 3.1049 7.41092)
*|S (ln_X226/26:2 3.1049 8.14092)
*|S (ln_X226/26:3 3.1049 7.23398)
*|S (ln_X226/26:4 3.1049 8.34398)
Cg3677_2646 ln_X226/26:1 0 1.32326e-16
Cg3677_2647 ln_X226/26:2 0 1.32326e-16
Cg3677_2648 ln_X226/26:3 0 1.09136e-16
Cg3677_2649 ln_X226/26:4 0 3.50841e-17
R3677_4337 ld_X226/X38:GATE ln_X226/26:1 2606.68
R3677_4338 ld_X226/X38:GATE ln_X226/26:2 2606.68
R3677_4339 ln_X226/26:1 ln_X226/26:3 341.343
R3677_4340 ln_X226/26:2 ln_X226/26:4 397.8
*|NET ln_X226/27 0.000474266PF
*|I (ld_X226/X39:GATE ld_X226/X39 GATE I 0 4.98694 7.77592)
*|S (ln_X226/27:1 4.9949 7.41092)
*|S (ln_X226/27:2 4.9949 8.14092)
*|S (ln_X226/27:3 4.9949 7.23398)
*|S (ln_X226/27:4 4.9949 8.34398)
Cg3678_2650 ln_X226/27:1 0 1.32431e-16
Cg3678_2651 ln_X226/27:2 0 1.32431e-16
Cg3678_2652 ln_X226/27:3 0 1.06726e-16
Cg3678_2653 ln_X226/27:4 0 3.50101e-17
R3678_4341 ld_X226/X39:GATE ln_X226/27:1 2606.68
R3678_4342 ld_X226/X39:GATE ln_X226/27:2 2606.68
R3678_4343 ln_X226/27:1 ln_X226/27:3 341.343
R3678_4344 ln_X226/27:2 ln_X226/27:4 397.8
*|NET ln_X227/27 0.000474187PF
*|I (ld_X227/X39:GATE ld_X227/X39 GATE I 0 4.98694 9.50398)
*|S (ln_X227/27:1 4.9949 9.13898)
*|S (ln_X227/27:2 4.9949 9.86898)
*|S (ln_X227/27:3 4.9949 8.93592)
*|S (ln_X227/27:4 4.9949 10.0459)
Cg3682_2654 ln_X227/27:1 0 1.3243e-16
Cg3682_2655 ln_X227/27:2 0 1.3243e-16
Cg3682_2656 ln_X227/27:3 0 1.16697e-16
Cg3682_2657 ln_X227/27:4 0 2.457e-17
R3682_4345 ld_X227/X39:GATE ln_X227/27:1 2606.68
R3682_4346 ld_X227/X39:GATE ln_X227/27:2 2606.68
R3682_4347 ln_X227/27:1 ln_X227/27:3 397.8
R3682_4348 ln_X227/27:2 ln_X227/27:4 341.343
*|NET ln_X228/26 0.000476235PF
*|I (ld_X228/X38:GATE ld_X228/X38 GATE I 0 10.7369 7.77592)
*|S (ln_X228/26:1 10.7289 7.41092)
*|S (ln_X228/26:2 10.7289 8.14092)
*|S (ln_X228/26:3 10.7289 7.23398)
*|S (ln_X228/26:4 10.7289 8.34398)
Cg3685_2658 ln_X228/26:1 0 1.32328e-16
Cg3685_2659 ln_X228/26:2 0 1.32328e-16
Cg3685_2660 ln_X228/26:3 0 1.09071e-16
Cg3685_2661 ln_X228/26:4 0 3.52923e-17
R3685_4349 ld_X228/X38:GATE ln_X228/26:1 2606.68
R3685_4350 ld_X228/X38:GATE ln_X228/26:2 2606.68
R3685_4351 ln_X228/26:1 ln_X228/26:3 341.343
R3685_4352 ln_X228/26:2 ln_X228/26:4 397.8
*|NET ln_X228/27 0.000474836PF
*|I (ld_X228/X39:GATE ld_X228/X39 GATE I 0 12.6109 7.77592)
*|S (ln_X228/27:1 12.6189 7.41092)
*|S (ln_X228/27:2 12.6189 8.14092)
*|S (ln_X228/27:3 12.6189 7.23398)
*|S (ln_X228/27:4 12.6189 8.34398)
Cg3686_2662 ln_X228/27:1 0 1.3243e-16
Cg3686_2663 ln_X228/27:2 0 1.3243e-16
Cg3686_2664 ln_X228/27:3 0 1.07392e-16
Cg3686_2665 ln_X228/27:4 0 3.52423e-17
R3686_4353 ld_X228/X39:GATE ln_X228/27:1 2606.68
R3686_4354 ld_X228/X39:GATE ln_X228/27:2 2606.68
R3686_4355 ln_X228/27:1 ln_X228/27:3 341.343
R3686_4356 ln_X228/27:2 ln_X228/27:4 397.8
*|NET ln_X230/27 0.000474584PF
*|I (ld_X230/X39:GATE ld_X230/X39 GATE I 0 13.2309 7.77592)
*|S (ln_X230/27:1 13.223 7.41092)
*|S (ln_X230/27:2 13.223 8.14092)
*|S (ln_X230/27:3 13.223 7.23398)
*|S (ln_X230/27:4 13.223 8.34398)
Cg3694_2666 ln_X230/27:1 0 1.32339e-16
Cg3694_2667 ln_X230/27:2 0 1.32339e-16
Cg3694_2668 ln_X230/27:3 0 1.07555e-16
Cg3694_2669 ln_X230/27:4 0 3.51866e-17
R3694_4357 ld_X230/X39:GATE ln_X230/27:1 2623.38
R3694_4358 ld_X230/X39:GATE ln_X230/27:2 2623.38
R3694_4359 ln_X230/27:1 ln_X230/27:3 343.531
R3694_4360 ln_X230/27:2 ln_X230/27:4 400.35
*|NET ln_X226/32 0.000489624PF
*|I (ld_X226/X40:GATE ld_X226/X40 GATE I 0 3.11296 6.62398)
*|S (ln_X226/32:1 3.1049 6.25898)
*|S (ln_X226/32:2 3.1049 6.98898)
*|S (ln_X226/32:3 3.1049 7.16592)
*|S (ln_X226/32:4 3.1049 6.05592)
Cg3679_2670 ln_X226/32:1 0 1.38453e-16
Cg3679_2671 ln_X226/32:2 0 1.38453e-16
C3679_2672 ln_X226/32:3 ln_X226/26:3 2.144e-18
Cg3679_2673 ln_X226/32:3 0 2.58534e-17
C3679_2674 ln_X226/32:4 ln_X226/26:3 6.2491e-17
C3679_2675 ln_X226/32:4 ln_X226/26:4 2.60768e-18
Cg3679_2676 ln_X226/32:4 0 1.19621e-16
R3679_4361 ld_X226/X40:GATE ln_X226/32:1 8681.97
R3679_4362 ld_X226/X40:GATE ln_X226/32:2 8681.97
R3679_4363 ln_X226/32:1 ln_X226/32:4 992.611
R3679_4364 ln_X226/32:2 ln_X226/32:3 851.737
*|NET ln_X228/32 0.000489523PF
*|I (ld_X228/X40:GATE ld_X228/X40 GATE I 0 10.7369 6.62398)
*|S (ln_X228/32:1 10.7289 6.05592)
*|S (ln_X228/32:2 10.7289 6.25898)
*|S (ln_X228/32:3 10.7289 6.98898)
*|S (ln_X228/32:4 10.7289 7.16592)
C3687_2677 ln_X228/32:1 ln_X228/26:3 6.24848e-17
C3687_2678 ln_X228/32:1 ln_X228/26:4 2.58793e-18
Cg3687_2679 ln_X228/32:1 0 1.19552e-16
Cg3687_2680 ln_X228/32:2 0 1.38444e-16
Cg3687_2681 ln_X228/32:3 0 1.38444e-16
C3687_2682 ln_X228/32:4 ln_X228/26:3 2.144e-18
Cg3687_2683 ln_X228/32:4 0 2.58659e-17
R3687_4365 ln_X228/32:1 ln_X228/32:2 992.611
R3687_4366 ln_X228/32:2 ld_X228/X40:GATE 8681.97
R3687_4367 ld_X228/X40:GATE ln_X228/32:3 8681.97
R3687_4368 ln_X228/32:3 ln_X228/32:4 851.737
*|NET ln_X229/32 0.00048912PF
*|I (ld_X229/X40:GATE ld_X229/X40 GATE I 0 10.7369 10.6559)
*|S (ln_X229/32:1 10.7289 10.114)
*|S (ln_X229/32:2 10.7289 10.2909)
*|S (ln_X229/32:3 10.7289 11.0209)
*|S (ln_X229/32:4 10.7289 11.224)
Cg3691_2684 ln_X229/32:1 0 1.0927e-16
Cg3691_2685 ln_X229/32:2 0 1.38444e-16
Cg3691_2686 ln_X229/32:3 0 1.38444e-16
Cg3691_2687 ln_X229/32:4 0 3.62916e-17
R3691_4369 ln_X229/32:1 ln_X229/32:2 851.737
R3691_4370 ln_X229/32:2 ld_X229/X40:GATE 8681.97
R3691_4371 ld_X229/X40:GATE ln_X229/32:3 8681.97
R3691_4372 ln_X229/32:3 ln_X229/32:4 992.611
*|NET ln_270 0.000216042PF
*|I (ld_X58:GATE ld_X58 GATE I 0 20.123 9.09592)
*|I (ld_X52:GATE ld_X52 GATE I 0 20.123 8.78398)
*|S (ln_270:1 20.1149 9.04296)
*|S (ln_270:2 20.1149 9.14898)
*|S (ln_270:3 20.1149 8.70694)
*|S (ln_270:4 20.1149 8.86092)
*|S (ln_270:5 20.1149 9.19194)
*|S (ln_270:6 20.1069 8.92796)
*|S (ln_270:7 20.1149 8.66398)
Cg1924_2688 ln_270:1 0 2.7332e-17
Cg1924_2689 ln_270:2 0 2.7332e-17
Cg1924_2690 ln_270:3 0 3.38929e-17
Cg1924_2691 ln_270:4 0 3.38929e-17
Cg1924_2692 ln_270:5 0 1.27875e-17
Cg1924_2693 ln_270:6 0 3.50718e-17
Cg1924_2694 ln_270:7 0 2.80961e-17
R1924_4373 ld_X58:GATE ln_270:1 1626.95
R1924_4374 ld_X58:GATE ln_270:2 1629.25
R1924_4375 ln_270:1 ln_270:6 517.712
R1924_4376 ln_270:2 ln_270:5 129.208
R1924_4377 ld_X52:GATE ln_270:3 651.946
R1924_4378 ld_X52:GATE ln_270:4 651.253
R1924_4379 ln_270:3 ln_270:7 51.7814
R1924_4380 ln_270:4 ln_270:6 103.828
*|NET ln_271 0.000229541PF
*|I (ld_X59:GATE ld_X59 GATE I 0 20.5569 9.09592)
*|I (ld_X53:GATE ld_X53 GATE I 0 20.5569 8.78398)
*|S (ln_271:1 20.5649 9.04296)
*|S (ln_271:2 20.5649 9.14898)
*|S (ln_271:3 20.5649 8.70694)
*|S (ln_271:4 20.5649 8.86092)
*|S (ln_271:5 20.5569 8.92796)
*|S (ln_271:6 20.5649 9.19194)
*|S (ln_271:7 20.5649 8.66398)
Cg1935_2695 ln_271:1 0 2.73346e-17
Cg1935_2696 ln_271:2 0 2.73346e-17
Cg1935_2697 ln_271:3 0 3.40265e-17
Cg1935_2698 ln_271:4 0 3.40265e-17
Cg1935_2699 ln_271:5 0 3.21468e-17
Cg1935_2700 ln_271:6 0 1.32065e-17
Cg1935_2701 ln_271:7 0 2.0611e-17
R1935_4381 ld_X59:GATE ln_271:1 1626.95
R1935_4382 ld_X59:GATE ln_271:2 1629.25
R1935_4383 ln_271:1 ln_271:5 517.712
R1935_4384 ln_271:2 ln_271:6 129.208
R1935_4385 ld_X53:GATE ln_271:3 651.946
R1935_4386 ld_X53:GATE ln_271:4 651.253
R1935_4387 ln_271:3 ln_271:7 51.7814
R1935_4388 ln_271:4 ln_271:5 103.828
*|NET ln_X175/9 0.00022673PF
*|I (ld_X175/X4:GATE ld_X175/X4 GATE I 0 22.373 8.20796)
*|I (ld_X175/X2:GATE ld_X175/X2 GATE I 0 22.373 8.49592)
*|S (ln_X175/9:1 22.3649 8.285)
*|S (ln_X175/9:2 22.3649 8.13092)
*|S (ln_X175/9:3 22.3649 8.41898)
*|S (ln_X175/9:4 22.3649 8.57296)
*|S (ln_X175/9:5 22.3649 8.08796)
*|S (ln_X175/9:6 22.3649 8.61592)
*|S (ln_X175/9:7 22.3649 8.35194)
Cg3294_2702 ln_X175/9:1 0 4.12483e-17
Cg3294_2703 ln_X175/9:2 0 3.57778e-17
Cg3294_2704 ln_X175/9:3 0 3.39102e-17
Cg3294_2705 ln_X175/9:4 0 3.39102e-17
Cg3294_2706 ln_X175/9:5 0 3.26902e-17
Cg3294_2707 ln_X175/9:6 0 1.43349e-17
Cg3294_2708 ln_X175/9:7 0 2.21681e-17
R3294_4389 ln_X175/9:1 ld_X175/X4:GATE 2171.41
R3294_4390 ln_X175/9:1 ln_X175/9:7 258.526
R3294_4391 ld_X175/X4:GATE ln_X175/9:2 2171.41
R3294_4392 ln_X175/9:2 ln_X175/9:5 129.208
R3294_4393 ld_X175/X2:GATE ln_X175/9:3 651.253
R3294_4394 ld_X175/X2:GATE ln_X175/9:4 651.946
R3294_4395 ln_X175/9:3 ln_X175/9:7 103.828
R3294_4396 ln_X175/9:4 ln_X175/9:6 51.7814
*|NET ln_X176/9 0.000230226PF
*|I (ld_X176/X4:GATE ld_X176/X4 GATE I 0 23.903 8.20796)
*|I (ld_X176/X2:GATE ld_X176/X2 GATE I 0 23.903 8.49592)
*|S (ln_X176/9:1 23.8949 8.285)
*|S (ln_X176/9:2 23.8949 8.13092)
*|S (ln_X176/9:3 23.8949 8.41898)
*|S (ln_X176/9:4 23.8949 8.57296)
*|S (ln_X176/9:5 23.8949 8.08796)
*|S (ln_X176/9:6 23.8949 8.61592)
*|S (ln_X176/9:7 23.8949 8.35194)
Cg3296_2709 ln_X176/9:1 0 3.99956e-17
Cg3296_2710 ln_X176/9:2 0 3.57767e-17
Cg3296_2711 ln_X176/9:3 0 3.39105e-17
Cg3296_2712 ln_X176/9:4 0 3.39105e-17
Cg3296_2713 ln_X176/9:5 0 3.20517e-17
Cg3296_2714 ln_X176/9:6 0 1.24448e-17
Cg3296_2715 ln_X176/9:7 0 2.24358e-17
R3296_4397 ln_X176/9:1 ld_X176/X4:GATE 2171.41
R3296_4398 ln_X176/9:1 ln_X176/9:7 258.526
R3296_4399 ld_X176/X4:GATE ln_X176/9:2 2171.41
R3296_4400 ln_X176/9:2 ln_X176/9:5 129.208
R3296_4401 ld_X176/X2:GATE ln_X176/9:3 651.253
R3296_4402 ld_X176/X2:GATE ln_X176/9:4 651.946
R3296_4403 ln_X176/9:3 ln_X176/9:7 103.828
R3296_4404 ln_X176/9:4 ln_X176/9:6 51.7814
*|NET ln_276 0.000217153PF
*|I (ld_X60:GATE ld_X60 GATE I 0 25.703 8.20796)
*|I (ld_X54:GATE ld_X54 GATE I 0 25.703 8.49592)
*|S (ln_276:1 25.6949 8.285)
*|S (ln_276:2 25.6949 8.13092)
*|S (ln_276:3 25.6949 8.41898)
*|S (ln_276:4 25.6949 8.57296)
*|S (ln_276:5 25.6949 8.08796)
*|S (ln_276:6 25.6949 8.35194)
*|S (ln_276:7 25.6949 8.61592)
Cg1986_2716 ln_276:1 0 5.37434e-18
Cg1986_2717 ln_276:2 0 3.17194e-18
Cg1986_2718 ln_276:3 0 3.30973e-18
Cg1986_2719 ln_276:4 0 3.30973e-18
Cg1986_2720 ln_276:5 0 2.42708e-17
Cg1986_2721 ln_276:6 0 1.80414e-17
Cg1986_2722 ln_276:7 0 6.60117e-18
R1986_4405 ln_276:1 ld_X60:GATE 2171.41
R1986_4406 ln_276:1 ln_276:6 258.526
R1986_4407 ld_X60:GATE ln_276:2 2171.41
R1986_4408 ln_276:2 ln_276:5 129.208
R1986_4409 ld_X54:GATE ln_276:3 651.253
R1986_4410 ld_X54:GATE ln_276:4 651.946
R1986_4411 ln_276:3 ln_276:6 103.828
R1986_4412 ln_276:4 ln_276:7 51.7814
*|NET ln_277 0.000222948PF
*|I (ld_X61:GATE ld_X61 GATE I 0 26.0469 8.20796)
*|I (ld_X55:GATE ld_X55 GATE I 0 26.0469 8.49592)
*|S (ln_277:1 26.0549 8.285)
*|S (ln_277:2 26.0549 8.13092)
*|S (ln_277:3 26.0549 8.41898)
*|S (ln_277:4 26.0549 8.57296)
*|S (ln_277:5 26.0549 8.35194)
*|S (ln_277:6 26.0549 8.08796)
*|S (ln_277:7 26.0549 8.61592)
Cg1997_2723 ln_277:1 0 4.12931e-17
Cg1997_2724 ln_277:2 0 3.5803e-17
Cg1997_2725 ln_277:3 0 3.39378e-17
Cg1997_2726 ln_277:4 0 3.39378e-17
Cg1997_2727 ln_277:5 0 2.31623e-17
Cg1997_2728 ln_277:6 0 3.30968e-17
Cg1997_2729 ln_277:7 0 1.45677e-17
R1997_4413 ln_277:1 ld_X61:GATE 2171.41
R1997_4414 ln_277:1 ln_277:5 258.526
R1997_4415 ld_X61:GATE ln_277:2 2171.41
R1997_4416 ln_277:2 ln_277:6 129.208
R1997_4417 ld_X55:GATE ln_277:3 651.253
R1997_4418 ld_X55:GATE ln_277:4 651.946
R1997_4419 ln_277:3 ln_277:5 103.828
R1997_4420 ln_277:4 ln_277:7 51.7814
*|NET ln_278 0.000222291PF
*|I (ld_X62:GATE ld_X62 GATE I 0 26.603 8.20796)
*|I (ld_X56:GATE ld_X56 GATE I 0 26.603 8.49592)
*|S (ln_278:1 26.5949 8.285)
*|S (ln_278:2 26.5949 8.13092)
*|S (ln_278:3 26.5949 8.41898)
*|S (ln_278:4 26.5949 8.57296)
*|S (ln_278:5 26.5949 8.35194)
*|S (ln_278:6 26.5949 8.08796)
*|S (ln_278:7 26.5949 8.61592)
Cg2008_2730 ln_278:1 0 3.99262e-17
Cg2008_2731 ln_278:2 0 3.57898e-17
Cg2008_2732 ln_278:3 0 3.39192e-17
Cg2008_2733 ln_278:4 0 3.39192e-17
Cg2008_2734 ln_278:5 0 2.34838e-17
Cg2008_2735 ln_278:6 0 3.38678e-17
Cg2008_2736 ln_278:7 0 1.24538e-17
R2008_4421 ln_278:1 ld_X62:GATE 2171.41
R2008_4422 ln_278:1 ln_278:5 258.526
R2008_4423 ld_X62:GATE ln_278:2 2171.41
R2008_4424 ln_278:2 ln_278:6 129.208
R2008_4425 ld_X56:GATE ln_278:3 651.253
R2008_4426 ld_X56:GATE ln_278:4 651.946
R2008_4427 ln_278:3 ln_278:5 103.828
R2008_4428 ln_278:4 ln_278:7 51.7814
*|NET net013 0.00343945PF
*|I (Xibuf4_dont_touch/MM0_8:GATE Xibuf4_dont_touch/MM0_8 GATE I 0 27.315 8.20796)
*|I (Xibuf4_dont_touch/MM0_7:GATE Xibuf4_dont_touch/MM0_7 GATE I 0 27.225 8.20796)
*|I (Xibuf4_dont_touch/MM0_6:GATE Xibuf4_dont_touch/MM0_6 GATE I 0 27.135 8.20796)
*|I (Xibuf4_dont_touch/MM0_5:GATE Xibuf4_dont_touch/MM0_5 GATE I 0 27.045 8.20796)
*|I (Xibuf4_dont_touch/MM0_4:GATE Xibuf4_dont_touch/MM0_4 GATE I 0 26.955 8.20796)
*|I (Xibuf4_dont_touch/MM0_3:GATE Xibuf4_dont_touch/MM0_3 GATE I 0 26.865 8.20796)
*|I (Xibuf4_dont_touch/MM0_2:GATE Xibuf4_dont_touch/MM0_2 GATE I 0 26.775 8.20796)
*|I (Xibuf4_dont_touch/MM0_1:GATE Xibuf4_dont_touch/MM0_1 GATE I 0 26.685 8.20796)
*|I (Xibuf4_dont_touch/MM1_8:GATE Xibuf4_dont_touch/MM1_8 GATE I 0 27.315 8.49592)
*|I (Xibuf4_dont_touch/MM1_7:GATE Xibuf4_dont_touch/MM1_7 GATE I 0 27.225 8.49592)
*|I (Xibuf4_dont_touch/MM1_6:GATE Xibuf4_dont_touch/MM1_6 GATE I 0 27.135 8.49592)
*|I (Xibuf4_dont_touch/MM1_5:GATE Xibuf4_dont_touch/MM1_5 GATE I 0 27.045 8.49592)
*|I (Xibuf4_dont_touch/MM1_4:GATE Xibuf4_dont_touch/MM1_4 GATE I 0 26.955 8.49592)
*|I (Xibuf4_dont_touch/MM1_3:GATE Xibuf4_dont_touch/MM1_3 GATE I 0 26.865 8.49592)
*|I (Xibuf4_dont_touch/MM1_2:GATE Xibuf4_dont_touch/MM1_2 GATE I 0 26.775 8.49592)
*|I (Xibuf4_dont_touch/MM1_1:GATE Xibuf4_dont_touch/MM1_1 GATE I 0 26.685 8.49592)
*|I (Xibuf3_dont_touch/MM0_3:DRN Xibuf3_dont_touch/MM0_3 DRN B 0 25.9569 8.20796)
*|I (Xibuf3_dont_touch/MM0_1:DRN Xibuf3_dont_touch/MM0_1 DRN B 0 25.7769 8.20796)
*|I (Xibuf3_dont_touch/MM1_3:DRN Xibuf3_dont_touch/MM1_3 DRN B 0 25.9569 8.49592)
*|I (Xibuf3_dont_touch/MM1_1:DRN Xibuf3_dont_touch/MM1_1 DRN B 0 25.7769 8.49592)
*|I (ld_X60:SRC ld_X60 SRC B 0 25.7035 8.20796)
*|I (Xibuf3_dont_touch/MM0_2:DRN Xibuf3_dont_touch/MM0_2 DRN B 0 25.883 8.20796)
*|I (ld_X54:SRC ld_X54 SRC B 0 25.7035 8.49592)
*|I (Xibuf3_dont_touch/MM1_2:DRN Xibuf3_dont_touch/MM1_2 DRN B 0 25.883 8.49592)
*|S (net013:1 27.3149 8.285)
*|S (net013:2 27.2249 8.285)
*|S (net013:3 27.3139 8.33888)
*|S (net013:4 27.3149 8.13092)
*|S (net013:5 27.2249 8.3399)
*|S (net013:6 27.2249 8.13092)
*|S (net013:7 27.1349 8.3399)
*|S (net013:8 27.1349 8.285)
*|S (net013:9 27.1349 8.13092)
*|S (net013:10 27.0459 8.33888)
*|S (net013:11 27.0449 8.285)
*|S (net013:12 27.0449 8.13092)
*|S (net013:13 26.9539 8.33888)
*|S (net013:14 26.9549 8.285)
*|S (net013:15 26.9549 8.13092)
*|S (net013:16 26.8649 8.3399)
*|S (net013:17 26.8649 8.285)
*|S (net013:18 26.8649 8.13092)
*|S (net013:19 26.7749 8.3399)
*|S (net013:20 26.7749 8.285)
*|S (net013:21 26.7749 8.13092)
*|S (net013:22 26.6859 8.33888)
*|S (net013:23 26.6849 8.285)
*|S (net013:24 26.6849 8.13092)
*|S (net013:25 27.3149 8.41898)
*|S (net013:26 27.3149 8.57296)
*|S (net013:27 27.2249 8.41898)
*|S (net013:28 27.2249 8.57296)
*|S (net013:29 27.1349 8.41898)
*|S (net013:30 27.1349 8.57296)
*|S (net013:31 27.0449 8.41898)
*|S (net013:32 27.0449 8.57296)
*|S (net013:33 26.9549 8.41898)
*|S (net013:34 26.9549 8.57296)
*|S (net013:35 26.8649 8.41898)
*|S (net013:36 26.8649 8.57296)
*|S (net013:37 26.7749 8.41898)
*|S (net013:38 26.7749 8.57296)
*|S (net013:39 26.6849 8.41898)
*|S (net013:40 26.6849 8.57296)
*|S (net013:41 26.698 8.38398)
*|S (net013:42 26.6459 8.38398)
*|S (net013:43 25.7449 8.25592)
*|S (net013:44 25.7449 8.25592)
*|S (net013:45 25.7399 8.44092)
*|S (net013:46 25.693 8.25592)
*|S (net013:47 27.3139 8.34888)
*|S (net013:48 27.3139 8.33888)
*|S (net013:49 27.2249 8.3499)
*|S (net013:50 27.2249 8.3399)
*|S (net013:51 27.2699 8.35194)
*|S (net013:52 27.1349 8.3499)
*|S (net013:53 27.1349 8.3399)
*|S (net013:54 27.1799 8.35194)
*|S (net013:55 27.0459 8.34888)
*|S (net013:56 27.0459 8.33888)
*|S (net013:57 27.0899 8.35194)
*|S (net013:58 26.9539 8.34888)
*|S (net013:59 26.9539 8.33888)
*|S (net013:60 26.8649 8.3499)
*|S (net013:61 26.8649 8.3399)
*|S (net013:62 26.9099 8.35194)
*|S (net013:63 26.7749 8.3499)
*|S (net013:64 26.7749 8.3399)
*|S (net013:65 26.8199 8.35194)
*|S (net013:66 26.6859 8.34888)
*|S (net013:67 26.6859 8.33888)
*|S (net013:68 26.7299 8.35194)
*|S (net013:69 27.3139 8.35888)
*|S (net013:70 27.2249 8.3599)
*|S (net013:71 27.1349 8.3599)
*|S (net013:72 27.0459 8.35888)
*|S (net013:73 26.9539 8.35888)
*|S (net013:74 26.8649 8.3599)
*|S (net013:75 26.7749 8.3599)
*|S (net013:76 26.6859 8.35888)
*|S (net013:77 25.92 8.24796)
*|S (net013:78 25.92 8.19092)
*|S (net013:79 25.9199 8.17194)
*|S (net013:80 25.92 8.15092)
*|S (net013:81 25.74 8.15092)
*|S (net013:82 25.74 8.19092)
*|S (net013:83 25.74 8.24796)
*|S (net013:84 25.7399 8.26296)
*|S (net013:85 25.92 8.43898)
*|S (net013:86 25.92 8.47898)
*|S (net013:87 25.92 8.53592)
*|S (net013:88 25.74 8.43898)
*|S (net013:89 25.74 8.47898)
*|S (net013:90 25.74 8.53592)
*|S (net013:91 27.2699 8.35194)
*|S (net013:92 27.1799 8.35194)
*|S (net013:93 27.0899 8.35194)
*|S (net013:94 26.9099 8.35194)
*|S (net013:95 26.8199 8.35194)
*|S (net013:96 26.7299 8.35194)
*|S (net013:97 25.9199 8.17194)
*|S (net013:98 25.9719 8.17194)
*|S (net013:99 25.7399 8.26296)
*|S (net013:100 25.9199 8.53194)
*|S (net013:101 25.9199 8.53194)
*|S (net013:102 25.9719 8.53194)
*|S (net013:103 25.7399 8.44092)
*|S (net013:104 26.2349 8.38398)
*|S (net013:105 26.2349 8.25592)
*|S (net013:106 26.6459 8.38398)
*|S (net013:107 27.3219 8.35194)
*|S (net013:108 26.6459 8.425)
*|S (net013:109 26.6459 8.27898)
*|S (net013:110 25.92 8.41347)
*|S (net013:111 25.7449 8.53194)
*|S (net013:112 25.9 8.285)
*|S (net013:113 25.7449 8.17194)
*|S (net013:114 27.3149 8.08796)
*|S (net013:115 27.2249 8.08796)
*|S (net013:116 27.1349 8.08796)
*|S (net013:117 27.0449 8.08796)
*|S (net013:118 26.9549 8.08796)
*|S (net013:119 26.8649 8.08796)
*|S (net013:120 26.7749 8.08796)
*|S (net013:121 26.6849 8.08796)
*|S (net013:122 25.92 8.12643)
*|S (net013:123 25.72 8.285)
*|S (net013:124 25.74 8.12643)
*|S (net013:125 27.3149 8.61592)
*|S (net013:126 27.2249 8.61592)
*|S (net013:127 27.1349 8.61592)
*|S (net013:128 27.0449 8.61592)
*|S (net013:129 26.9549 8.61592)
*|S (net013:130 26.8649 8.61592)
*|S (net013:131 26.7749 8.61592)
*|S (net013:132 26.6849 8.61592)
*|S (net013:133 25.74 8.41347)
*|S (net013:134 25.9 8.57296)
*|S (net013:135 25.72 8.57296)
*|S (net013:136 25.74 8.19092)
*|S (net013:137 25.74 8.15092)
*|S (net013:138 25.74 8.24796)
*|S (net013:139 25.92 8.19092)
*|S (net013:140 25.92 8.15092)
*|S (net013:141 25.92 8.24796)
*|S (net013:142 25.74 8.47898)
*|S (net013:143 25.74 8.43898)
*|S (net013:144 25.74 8.53592)
*|S (net013:145 25.92 8.47898)
*|S (net013:146 25.92 8.43898)
*|S (net013:147 25.92 8.53592)
Cg2654_2737 net013:1 0 4.17178e-17
Cg2654_2738 net013:2 0 3.67701e-17
Cg2654_2739 net013:4 0 3.72805e-17
Cg2654_2740 net013:6 0 3.73099e-17
Cg2654_2741 net013:8 0 3.66494e-17
Cg2654_2742 net013:9 0 3.72791e-17
Cg2654_2743 net013:11 0 3.84655e-17
Cg2654_2744 net013:12 0 3.72962e-17
Cg2654_2745 net013:14 0 3.84586e-17
Cg2654_2746 net013:15 0 3.72848e-17
Cg2654_2747 net013:17 0 3.63726e-17
Cg2654_2748 net013:18 0 3.70002e-17
C2654_2749 net013:20 ln_278:1 1.5053e-19
Cg2654_2750 net013:20 0 3.63436e-17
Cg2654_2751 net013:21 0 3.69733e-17
C2654_2752 net013:23 ln_278:1 3.01907e-18
Cg2654_2753 net013:23 0 3.99293e-17
Cg2654_2754 net013:24 0 3.71807e-17
Cg2654_2755 net013:25 0 3.55534e-17
Cg2654_2756 net013:26 0 3.55534e-17
Cg2654_2757 net013:27 0 3.44777e-17
Cg2654_2758 net013:28 0 3.55736e-17
Cg2654_2759 net013:29 0 3.43705e-17
Cg2654_2760 net013:30 0 3.55439e-17
Cg2654_2761 net013:31 0 3.55731e-17
Cg2654_2762 net013:32 0 3.55731e-17
Cg2654_2763 net013:33 0 3.5553e-17
Cg2654_2764 net013:34 0 3.5553e-17
Cg2654_2765 net013:35 0 3.41756e-17
Cg2654_2766 net013:36 0 3.53518e-17
Cg2654_2767 net013:37 0 3.4146e-17
Cg2654_2768 net013:38 0 3.53194e-17
Cg2654_2769 net013:39 0 3.54769e-17
Cg2654_2770 net013:40 0 3.54769e-17
Cg2654_2771 Xibuf3_dont_touch/MM0_3:DRN 0 1.07239e-19
C2654_2772 Xibuf3_dont_touch/MM0_1:DRN ln_276:1 2.36179e-17
C2654_2773 Xibuf3_dont_touch/MM0_1:DRN ln_276:2 2.27248e-17
C2654_2774 Xibuf3_dont_touch/MM0_1:DRN ln_276:5 9.30101e-19
Cg2654_2775 Xibuf3_dont_touch/MM0_1:DRN 0 2.59029e-20
Cg2654_2776 Xibuf3_dont_touch/MM1_3:DRN 0 1.51155e-19
C2654_2777 Xibuf3_dont_touch/MM1_1:DRN ln_276:6 3.96508e-20
C2654_2778 Xibuf3_dont_touch/MM1_1:DRN ln_276:7 2.14667e-19
C2654_2779 Xibuf3_dont_touch/MM1_1:DRN ln_276:3 2.0567e-17
C2654_2780 Xibuf3_dont_touch/MM1_1:DRN ln_276:4 2.0567e-17
Cg2654_2781 Xibuf3_dont_touch/MM1_1:DRN 0 2.7077e-20
Cg2654_2782 net013:47 0 3.60366e-18
Cg2654_2783 net013:55 0 3.38022e-19
Cg2654_2784 net013:56 0 1.6762e-17
Cg2654_2785 net013:58 0 3.47481e-19
C2654_2786 net013:63 ln_278:5 1.50812e-19
C2654_2787 net013:66 ln_278:5 3.01462e-18
Cg2654_2788 net013:66 0 3.38022e-19
C2654_2789 net013:67 ln_278:5 1.05517e-18
C2654_2790 net013:67 ln_278:1 1.05389e-18
Cg2654_2791 net013:67 0 1.63376e-17
Cg2654_2792 net013:104 0 3.03856e-17
Cg2654_2793 net013:105 0 2.64409e-17
C2654_2794 net013:106 ln_278:5 2.11177e-19
C2654_2795 net013:106 ln_278:3 1.11308e-20
C2654_2796 net013:106 ln_278:4 1.11308e-20
C2654_2797 net013:106 ln_278:2 1.32349e-20
C2654_2798 net013:106 ln_278:1 2.40723e-19
Cg2654_2799 net013:106 0 1.05153e-17
Cg2654_2800 net013:107 0 1.22766e-17
Cg2654_2801 net013:110 0 1.17861e-18
C2654_2802 net013:111 ln_276:3 3.84172e-20
C2654_2803 net013:111 ln_276:4 3.84172e-20
Cg2654_2804 net013:111 0 3.88461e-17
Cg2654_2805 net013:112 0 1.07608e-17
C2654_2806 net013:113 ln_276:2 7.75947e-20
C2654_2807 net013:113 ln_276:1 3.30773e-19
C2654_2808 net013:113 ln_276:6 2.41182e-19
C2654_2809 net013:113 ln_276:3 2.68871e-20
C2654_2810 net013:113 ln_276:4 2.68871e-20
Cg2654_2811 net013:113 0 4.15264e-17
Cg2654_2812 net013:114 0 1.72712e-17
Cg2654_2813 net013:115 0 1.38279e-17
Cg2654_2814 net013:116 0 1.72503e-17
Cg2654_2815 net013:117 0 1.38427e-17
Cg2654_2816 net013:118 0 1.72713e-17
Cg2654_2817 net013:119 0 1.3828e-17
Cg2654_2818 net013:120 0 1.72503e-17
Cg2654_2819 net013:121 0 1.38427e-17
Cg2654_2820 net013:122 0 2.59742e-18
C2654_2821 net013:123 ln_276:1 1.09174e-17
C2654_2822 net013:123 ln_276:2 9.88423e-18
C2654_2823 net013:123 ln_276:5 4.02328e-18
Cg2654_2824 net013:123 0 8.21965e-18
C2654_2825 net013:124 ln_276:5 5.65149e-19
Cg2654_2826 net013:124 0 2.35738e-18
Cg2654_2827 net013:125 0 1.34836e-17
Cg2654_2828 net013:126 0 1.35074e-17
Cg2654_2829 net013:127 0 1.34625e-17
Cg2654_2830 net013:128 0 1.35226e-17
Cg2654_2831 net013:129 0 1.34837e-17
Cg2654_2832 net013:130 0 1.35076e-17
Cg2654_2833 net013:131 0 1.34625e-17
Cg2654_2834 net013:132 0 1.35226e-17
C2654_2835 net013:133 ln_276:6 1.06746e-18
Cg2654_2836 net013:133 0 6.69996e-19
Cg2654_2837 net013:134 0 1.13211e-17
C2654_2838 net013:135 ln_276:4 1.00222e-17
C2654_2839 net013:135 ln_276:3 1.00222e-17
C2654_2840 net013:135 ln_276:7 5.51683e-19
C2654_2841 net013:135 ln_276:6 4.36987e-18
Cg2654_2842 net013:135 0 8.84287e-18
R2654_4429 net013:1 net013:3 188.089
R2654_4430 net013:1 Xibuf4_dont_touch/MM0_8:GATE 2171.41
R2654_4431 net013:2 net013:5 193.592
R2654_4432 net013:2 Xibuf4_dont_touch/MM0_7:GATE 2171.41
R2654_4433 net013:3 net013:47 80.8924
R2654_4434 net013:3 net013:48 491.001
R2654_4435 Xibuf4_dont_touch/MM0_8:GATE net013:4 2171.41
R2654_4436 net013:4 net013:114 129.208
R2654_4437 net013:5 net013:49 80.8924
R2654_4438 net013:5 net013:50 272.305
R2654_4439 Xibuf4_dont_touch/MM0_7:GATE net013:6 2171.41
R2654_4440 net013:6 net013:115 129.208
R2654_4441 net013:7 net013:8 193.592
R2654_4442 net013:7 net013:52 80.8924
R2654_4443 net013:7 net013:53 272.305
R2654_4444 net013:8 Xibuf4_dont_touch/MM0_6:GATE 2171.41
R2654_4445 Xibuf4_dont_touch/MM0_6:GATE net013:9 2171.41
R2654_4446 net013:9 net013:116 129.208
R2654_4447 net013:10 net013:11 188.089
R2654_4448 net013:10 net013:55 80.8924
R2654_4449 net013:10 net013:56 491.001
R2654_4450 net013:11 Xibuf4_dont_touch/MM0_5:GATE 2171.41
R2654_4451 Xibuf4_dont_touch/MM0_5:GATE net013:12 2171.41
R2654_4452 net013:12 net013:117 129.208
R2654_4453 net013:13 net013:14 188.089
R2654_4454 net013:13 net013:58 80.8924
R2654_4455 net013:13 net013:59 491.001
R2654_4456 net013:14 Xibuf4_dont_touch/MM0_4:GATE 2171.41
R2654_4457 Xibuf4_dont_touch/MM0_4:GATE net013:15 2171.41
R2654_4458 net013:15 net013:118 129.208
R2654_4459 net013:16 net013:17 193.592
R2654_4460 net013:16 net013:60 80.8924
R2654_4461 net013:16 net013:61 272.305
R2654_4462 net013:17 Xibuf4_dont_touch/MM0_3:GATE 2171.41
R2654_4463 Xibuf4_dont_touch/MM0_3:GATE net013:18 2171.41
R2654_4464 net013:18 net013:119 129.208
R2654_4465 net013:19 net013:20 193.592
R2654_4466 net013:19 net013:63 80.8924
R2654_4467 net013:19 net013:64 272.305
R2654_4468 net013:20 Xibuf4_dont_touch/MM0_2:GATE 2171.41
R2654_4469 Xibuf4_dont_touch/MM0_2:GATE net013:21 2171.41
R2654_4470 net013:21 net013:120 129.208
R2654_4471 net013:22 net013:23 188.089
R2654_4472 net013:22 net013:66 80.8924
R2654_4473 net013:22 net013:67 491.001
R2654_4474 net013:23 Xibuf4_dont_touch/MM0_1:GATE 2171.41
R2654_4475 Xibuf4_dont_touch/MM0_1:GATE net013:24 2171.41
R2654_4476 net013:24 net013:121 129.208
R2654_4477 Xibuf4_dont_touch/MM1_8:GATE net013:25 651.253
R2654_4478 Xibuf4_dont_touch/MM1_8:GATE net013:26 651.946
R2654_4479 net013:25 net013:47 96.7704
R2654_4480 net013:26 net013:125 51.7814
R2654_4481 Xibuf4_dont_touch/MM1_7:GATE net013:27 651.253
R2654_4482 Xibuf4_dont_touch/MM1_7:GATE net013:28 651.946
R2654_4483 net013:27 net013:49 95.4472
R2654_4484 net013:28 net013:126 51.7814
R2654_4485 Xibuf4_dont_touch/MM1_6:GATE net013:29 651.253
R2654_4486 Xibuf4_dont_touch/MM1_6:GATE net013:30 651.946